26
Properties=species:S:1:pos:R:3:forces:R:3:charge:R:1 energy=-1096.9585567447803 free_energy=-1096.9585567447803 dipole="-0.5248282052557456 0.15530174937674607 -0.019710136555343497" pbc="F F F"
N       -1.84798535      -1.81371321       2.01772498      -0.02311600      -0.00734758      -0.03918369      -0.24009030
C       -2.12105129      -0.83214042       1.12384578       0.03102055      -0.01691657      -0.00888939       0.08784791
C       -3.43256358      -0.42308782       0.88155142       0.02962253       0.01092586       0.00326484      -0.04958091
C       -3.71404576       0.53434599      -0.07868113      -0.00955881      -0.01426749      -0.01002352      -0.04423333
C       -2.66648984       1.12778408      -0.77981754      -0.01651315       0.01449151       0.01870991      -0.02132538
C       -1.35324731       0.75772219      -0.54978264      -0.00788116      -0.01342975      -0.00625833      -0.04559715
C       -1.02762243      -0.22999199       0.39176273       0.00434331      -0.00160683      -0.00616630      -0.02065521
C        0.31057800      -0.57843420       0.76833632       0.00402697       0.00493797       0.00746796       0.15695691
O        0.56138676      -1.26910060       1.82209491      -0.01530961       0.01622498       0.02698195      -0.43330757
C        1.46894362      -0.17192212      -0.02794393       0.00100202       0.02434434       0.02259342       0.00659388
C        1.47752070      -0.01649914      -1.42008301      -0.03036713       0.02770518       0.02601060      -0.03954080
C        2.61426822       0.44056959      -2.05703643      -0.01359688      -0.04142182      -0.02075511      -0.02903002
C        3.77196364       0.71565998      -1.34330809      -0.03232211       0.01607205       0.00086323      -0.03516516
C        3.79111635       0.49876384       0.02735629       0.02074779      -0.03032818      -0.00926428      -0.02953375
C        2.66721224       0.03945141       0.67381747       0.00077818       0.03777248       0.02752407      -0.02613494
H       -0.82388025      -1.88330642       2.21278592       0.02556762      -0.02859935      -0.01626208       0.25766703
H       -2.49656153      -1.93161633       2.78201457      -0.00033572      -0.03094271       0.02802463       0.17448501
H       -4.23009228      -0.92192619       1.41558070       0.01561604       0.02686647      -0.02315664       0.03597935
H       -4.73590392       0.81600074      -0.27345662      -0.00873043       0.02385238      -0.02128207       0.03623419
H       -2.87733546       1.91755899      -1.48519991       0.00520013      -0.00111254      -0.01386232       0.03797501
H       -0.56249262       1.30196174      -1.04137315       0.00030411      -0.00119108       0.01249525       0.04561373
H        0.60875789      -0.27908802      -2.00477216      -0.00564044      -0.01391520       0.00455234       0.03435313
H        2.60577948       0.56223438      -3.13026882      -0.01353194       0.01171350      -0.02697912       0.02928675
H        4.65187420       1.08075239      -1.85180094      -0.00808909      -0.02428539      -0.00535245       0.02955758
H        4.69143722       0.68523749       0.59387514       0.01918478       0.01043851       0.00319221       0.03289298
H        2.66843330      -0.12721635       1.73945919       0.02757842       0.00001928       0.02575489       0.04875105
