84
Properties=species:S:1:pos:R:3:forces:R:3:charge:R:1 energy=-4504.262919808917 free_energy=-4504.262919808917 dipole="1.3879489843743236 -0.6637863964275166 0.040138000483014614" pbc="F F F"
Ir       6.88081141       4.93185358       7.98853553      -0.01017753       0.00441627      -0.00162089      -0.07016813
O        9.68884120       5.89497573       6.62799327       0.03772586      -0.02515469       0.00375227      -0.24995932
O        8.28540280       2.23599236       9.22303499       0.04080450      -0.00943692      -0.00746485      -0.25099034
N        8.89765023       4.09056187       7.91381493      -0.03029948       0.01330564       0.00101642      -0.15674761
N        5.85994371       2.37639818       6.26548329       0.00680414       0.01804126       0.00542879       0.01481163
N        4.43058957       3.85444745       6.89795763       0.00376911       0.00755264       0.00335432       0.02941589
N        6.12083032       7.43643961       9.21082176      -0.00644240      -0.01498892       0.00439924       0.02869657
N        8.17439751       7.26582179       9.83094980      -0.01045271      -0.01640970      -0.00523885       0.01340407
C        7.26901207       5.85133620       6.16069830      -0.00252025      -0.03263846       0.03341814      -0.08383134
C        6.30843755       6.19567401       5.20121381       0.00067048      -0.00282856       0.01479313      -0.03477112
C        6.60646886       6.85771767       4.02737016       0.01948123       0.01482979       0.01282904      -0.03703840
C        7.92114265       7.22128186       3.77093566       0.00954917       0.01882872      -0.04461783      -0.03881379
C        8.91965444       6.87502306       4.66625686      -0.00629378       0.00479165      -0.02176629      -0.04888521
C        8.57830403       6.19005710       5.82430049      -0.00137365       0.00090509      -0.00255190       0.13153377
C        9.88122856       4.72920302       7.25558930       0.00310892      -0.02549397       0.01709235       0.22694464
C       11.19316689       4.25416018       7.23204309       0.00400122      -0.00366486       0.00149807      -0.07489374
C       11.49187254       3.06724060       7.86991034       0.00532890      -0.01002452       0.00219690      -0.01612268
C       10.48300074       2.39885844       8.53446107       0.00706727       0.00389620      -0.00547844      -0.07530850
C        9.20147311       2.95045848       8.55751329       0.02029522       0.00928958      -0.01598040       0.22568772
C        7.31378932       2.78151711      10.07454398      -0.00057103      -0.00199626       0.00377871       0.13115220
C        7.12191005       2.02372421      11.22174149      -0.01042164       0.00019496       0.02213730      -0.04949050
C        6.19195251       2.44366455      12.15855952      -0.00332630      -0.02500080       0.04152258      -0.03918895
C        5.48739412       3.62177578      11.95367180       0.00204466      -0.02001378      -0.00713993      -0.03737174
C        5.69829693       4.33814488      10.79302037       0.00400925       0.00320975      -0.01088372      -0.03504835
C        6.60026624       3.94626938       9.79577717       0.01902412       0.02925170      -0.02788231      -0.08423455
C        8.27080694       7.94657192       2.51056435      -0.00107691       0.01710262      -0.03170005       0.48445873
C        5.98446992       1.64904184      13.40853722      -0.01333943      -0.01127578       0.03177584       0.48443655
C        5.75704931       3.51823358       6.96619651       0.00411286       0.01925920       0.00416493       0.00250178
C        4.63428513       1.99584011       5.77987021       0.00306087       0.01038214       0.01305858      -0.01497902
C        3.73528954       2.92588341       6.17642485      -0.00338288       0.00693235       0.00562656      -0.01700691
C        5.10299940       5.72975962       8.04840629       0.00711663       0.00013916      -0.00431059      -0.04666945
C        4.02444196       5.06285649       7.47236376       0.00130281       0.00547544       0.00565101       0.05659087
C        2.76033817       5.62604903       7.49268477      -0.00209117      -0.00275601       0.00428449      -0.04618005
C        2.60989575       6.86640693       8.11355544      -0.00761964       0.00358139      -0.00650460      -0.03746588
C        3.67287464       7.55831287       8.69502107      -0.00375787      -0.00106599       0.00308915      -0.04606329
C        4.92523832       6.97106229       8.65558901      -0.00399734      -0.00634260      -0.00501404       0.05675220
C        6.37367340       8.51008882      10.01742831      -0.01059125      -0.00060114      -0.00500996      -0.01687452
C        7.66484704       8.40312075      10.40591938      -0.00657134      -0.00635788      -0.01241424      -0.01474772
C        7.24087168       6.65875014       9.07752640      -0.01229526      -0.02013289      -0.00052415       0.00231831
C        7.09112952       1.66012654       6.00186475      -0.01597540       0.00275098       0.00268927       0.03929034
C        7.32565413       1.56838551       4.49431746       0.00642931      -0.00200289       0.01021383      -0.11595930
C        7.05288637       0.28741689       6.67059760       0.00554645       0.00410173      -0.00440847      -0.11602271
C        1.25501561       7.50688438       8.11931154       0.00657374      -0.00207195      -0.00292351       0.48544261
C        9.50925559       6.76418867      10.08695702      -0.01245443       0.01270925      -0.00290014       0.03968202
C        9.70225376       6.54421398      11.58756331       0.00668860      -0.00267370      -0.01112339      -0.11574040
C       10.55075867       7.71318885       9.49781487      -0.00038893      -0.00508162       0.00165707      -0.11654413
F        7.25922688       8.68953432       2.03387648       0.00596924       0.03298674       0.00902734      -0.20996732
F        9.31829347       8.77709325       2.65528547      -0.00424471      -0.00568218      -0.01586857      -0.21215423
F        8.60618348       7.10723738       1.50310818       0.03030907      -0.02448811       0.02352537      -0.21912399
F        6.83594802       2.00650790      14.39798079       0.03695324      -0.00578483      -0.02347349      -0.21908984
F        4.75428118       1.79526192      13.92616826      -0.02070453      -0.02491606      -0.00922719      -0.21015413
F        6.16761173       0.32904869      13.23001782       0.00401383       0.00863558       0.01379574      -0.21215578
F        1.06111937       8.30290592       7.04463242      -0.00939366      -0.00436089       0.01225511      -0.21414091
F        0.25131608       6.61468755       8.09917047       0.00414224       0.02251757       0.00467891      -0.20890231
F        1.04936421       8.28707553       9.19370417      -0.01293975      -0.01179752      -0.01768089      -0.20940477
H        5.27316459       5.94763987       5.37963184      -0.03242991       0.01599188      -0.00239696       0.03444141
H        5.82500274       7.10776568       3.32560685       0.02728629       0.01248222      -0.00666401       0.04718754
H        9.94975704       7.13607410       4.47887882       0.00954481      -0.00533412      -0.00120092       0.05620107
H       11.93574579       4.82298061       6.69919717      -0.00144146       0.00734055      -0.00305665       0.06758659
H       12.49499382       2.67070307       7.85141636      -0.01181912       0.00237804       0.00143612       0.06003002
H       10.65409406       1.47277198       9.05572020      -0.00874320      -0.00874228       0.00657800       0.06732462
H        7.68859960       1.11738554      11.36873761       0.00946929      -0.00772638      -0.00108424       0.05626313
H        4.77040497       3.96269851      12.68524673       0.01386284      -0.02617610       0.01260281       0.04688674
H        5.12197092       5.24049878      10.65373545      -0.03334523       0.01260448       0.00868562       0.03502698
H        4.49732116       1.10955014       5.19673919      -0.03070064       0.00474126       0.00738056       0.05567779
H        2.68267090       2.99424529       5.99979164      -0.02194476      -0.01341444      -0.00571797       0.05793638
H        1.90364317       5.14029569       7.05276278      -0.01083400      -0.00990439       0.00971365       0.05617762
H        3.49680897       8.51402160       9.16316406      -0.00056569       0.01138724      -0.00717462       0.05606267
H        5.63473125       9.24500950      10.25728765      -0.00426832       0.03009844       0.00355467       0.05780891
H        8.24815636       9.03555163      11.04151166      -0.02264083       0.02671684      -0.01069742       0.05535137
H        7.89112890       2.25781999       6.44795125      -0.00783801      -0.01907569      -0.01311243       0.06095134
H        8.29701490       1.12502048       4.29405054       0.01011463       0.00323652       0.02712019       0.05239232
H        7.30187546       2.56225733       4.05134873      -0.00405059      -0.01322638       0.00533870       0.04916220
H        6.56750740       0.95302356       4.01534437       0.00788607       0.01412104       0.00936680       0.05041859
H        8.00198673      -0.22205024       6.52997676       0.00733684       0.01508334      -0.00468804       0.05229075
H        6.87579359       0.39954261       7.73792024       0.00928476      -0.00335527      -0.01321089       0.05732992
H        6.26503859      -0.33118689       6.24618240       0.00423134       0.01629247       0.00820968       0.04856817
H        9.57352377       5.79698998       9.58124161       0.01034727       0.02118721       0.00981216       0.05806428
H        8.91791989       5.89663076      11.97522351       0.00579521       0.01225710      -0.01079998       0.04915698
H       10.66228121       6.07071535      11.77314103       0.00454292      -0.00895157      -0.02626938       0.05228149
H        9.67907024       7.48601297      12.13083897      -0.00457865      -0.01265064      -0.01364945       0.05063057
H       10.50917133       8.68566711       9.98360000      -0.00787941      -0.01045059      -0.01281419       0.04931467
H       10.37216599       7.84332873       8.43274851       0.00889379      -0.00077064       0.01019895       0.05742658
H       11.54807318       7.30430725       9.63404118      -0.00871595      -0.01618402       0.00353746       0.05114035
