107
Properties=species:S:1:pos:R:3:forces:R:3:charge:R:1 energy=-4784.656511810729 free_energy=-4784.656511810729 dipole="-1.1429082128519232 1.8603574825403326 0.1634163480025657" pbc="F F F"
Ir       4.93123379       8.94873851      24.50351039      -0.00230573       0.00349861       0.00438510      -0.05770542
N        4.21798854      12.26108628      25.00012580      -0.01148139      -0.03637910       0.00643660      -0.03257058
N        6.02403668      10.82898205      24.59949074      -0.01410979      -0.03735900       0.00804400      -0.15009659
N        6.90594417       8.28596160      24.41310376       0.00859184       0.01257861       0.00425094      -0.04758693
N        7.51171113       7.12942540      24.35493027       0.00534379       0.01778876       0.00534675      -0.21937512
N        5.07177721       9.25721050      21.25896706      -0.00741501       0.01140863      -0.02466857       0.00863734
N        3.98217377       7.60997646      22.10369939      -0.01951420      -0.01218406      -0.02263197       0.03559844
N        4.09782521       7.19377633      26.65989456      -0.01505771      -0.01371618       0.01741070       0.03488475
N        5.16878808       8.74038113      27.70211168       0.00638752      -0.00649250       0.02551430       0.01456558
O       -0.44241200       9.31822587      24.71899784       0.00155385      -0.03687580      -0.01132729      -0.28180076
O        5.67611046      14.57155035      26.19168326      -0.00695093       0.02306523       0.00637429      -0.28555340
O        8.44557240      13.95419410      23.39896624      -0.00133082       0.01945681      -0.01457679      -0.26096795
C        3.15530471       9.97391760      24.62983367      -0.01684150       0.00997526       0.01267082      -0.05771073
C        1.88616957       9.40265880      24.59238633      -0.00382065      -0.00588675      -0.02250178      -0.06793755
C        0.68323005      10.09884939      24.77466456       0.00597866      -0.00256771      -0.02159479       0.13097441
C        0.69427183      11.45831600      25.01264260       0.04873389       0.00089367      -0.00378314      -0.08088092
C        1.94291534      12.06987680      25.06115461       0.01999610       0.01229080       0.00849622      -0.02003487
C        3.14016058      11.35781752      24.86585458       0.00158150      -0.01288434       0.00894532       0.03023759
C        2.28990570      13.42075397      25.39270419      -0.01049786       0.02097217       0.00793122      -0.01327026
C        1.50386696      14.51381972      25.73152856       0.00235205       0.02494339       0.01623860      -0.04634691
C        2.13625872      15.66657960      26.13672774       0.02495957       0.00412096      -0.00044079      -0.04278428
C        3.52035149      15.70655148      26.27634353       0.03663143      -0.00633914       0.01330002      -0.07619523
C        4.32251915      14.61857613      25.95843999      -0.00624531      -0.04082296      -0.02096083       0.12215842
C        3.69806294      13.48837319      25.40944065      -0.00545604      -0.02763701      -0.00595154       0.02055386
C        5.51254621      12.06563225      24.56484480      -0.01139355      -0.02481772       0.02435571       0.14227638
C        6.24808209      13.14660331      24.06895521      -0.01413836      -0.01114615       0.01363159      -0.09606920
C        7.60671402      12.98438810      23.83157859       0.00215696       0.00591704       0.01721037       0.15516793
C        8.17369715      11.72683261      24.03459682      -0.01840153      -0.01910767      -0.01378495      -0.08656630
C        7.34272738      10.66156210      24.34385780      -0.00988582      -0.02003864       0.00601359       0.08123188
C        7.80940804       9.29883686      24.36092367       0.00618173       0.00222759      -0.00614560       0.02484877
C        9.08599277       8.73960131      24.26586167      -0.01118495       0.00005245       0.00136195      -0.08061356
C        8.83132969       7.36948341      24.27325102      -0.00333432       0.01548551      -0.00072377       0.01118486
C        9.83636144       6.29048794      24.14780410      -0.02985386       0.01983628       0.00410037       0.48167529
C       -1.68288626       9.92107719      24.98102647       0.02206048       0.00111473      -0.00524039       0.04168504
C        6.27825587      15.65217164      26.85737822       0.00153270       0.01808161       0.01019361       0.04446067
C        7.93225189      15.24885727      23.19730154      -0.00592546       0.02490064      -0.00008930       0.03632607
C        4.70547022       8.71850892      22.43608128      -0.00031126      -0.01515138      -0.02607981      -0.00246221
C        4.58424925       8.51343852      20.21441218       0.00607981       0.00148959      -0.00655993      -0.01831501
C        3.89148881       7.47998081      20.74954735       0.00030519      -0.00248628      -0.02035335      -0.01664472
C        3.96143028       7.24295369      24.37016132       0.00853487      -0.00398442      -0.00293851      -0.04505493
C        3.53331877       6.77807141      23.13721011      -0.00598701       0.00471607       0.00001690       0.05029882
C        2.74364042       5.64367534      23.03625192      -0.01250401       0.01216899       0.00139298      -0.05713595
C        2.37001790       4.96359874      24.19295372       0.01501067       0.00428552      -0.00055679       0.00407662
C        2.80636718       5.42061273      25.44041696      -0.00111671       0.00654290      -0.00527440      -0.05212620
C        3.59675442       6.55221492      25.51887429      -0.00129852       0.00389170       0.00036367       0.05181950
C        4.76347432       8.37079502      26.47823078       0.00418279      -0.01832315       0.02777573       0.00722493
C        4.09001010       6.84934257      27.97955903      -0.01255375       0.00501782       0.01773077      -0.01643016
C        4.76278102       7.82435808      28.63886564      -0.00106565      -0.00259760       0.00401510      -0.01852621
C        5.98619411      10.36864628      21.12220110       0.00688334       0.01085247      -0.00512877       0.03990326
C        5.44548504      11.41902798      20.15705915       0.00370486       0.00376332       0.00432360      -0.11282758
C        7.35785148       9.83382605      20.71010978       0.00179406       0.01703955       0.00081902      -0.11217562
C        1.47660937       3.73337821      24.14711082       0.01063974       0.00755180       0.00138916       0.02664977
C        1.07480470       3.34525584      22.72196720      -0.00264263      -0.00321228       0.00868278      -0.10906130
C        0.19380538       4.02712486      24.93745913       0.00449375      -0.00982678      -0.00281492      -0.10789776
C        2.23238932       2.55150128      24.76814584      -0.00748956      -0.00406151       0.00200768      -0.10795387
C        5.95885210       9.92213667      27.96502694       0.00357065       0.00753482       0.00574192       0.03623196
C        7.28428175       9.52728892      28.61240607      -0.00207503       0.01594880      -0.00429893      -0.11246104
C        5.15445591      10.92140862      28.79218589       0.00583965       0.00388628      -0.00111592      -0.11247485
F       10.24144274       6.10725058      22.86442824       0.01143274      -0.01274686       0.03685700      -0.22743777
F        9.42254653       5.09223076      24.57694204      -0.00330408       0.00569421       0.00280344      -0.20553139
F       10.96816589       6.56869783      24.83606591      -0.01195529      -0.01884803      -0.02809701      -0.22528916
H        1.77371408       8.34148459      24.43438025      -0.01565880      -0.00356594      -0.00774840       0.05008239
H       -0.19752615      12.04096549      25.18129250       0.02110685      -0.02539992      -0.01420227       0.02866990
H        0.42878954      14.45191255      25.69445341      -0.02436604      -0.01350403      -0.01004249       0.03434106
H        1.56248997      16.54402659      26.39288434      -0.00179334       0.00587885       0.01257171       0.03067402
H        3.96402838      16.60550462      26.67124215       0.02642308       0.01909532       0.00742324       0.03190354
H        5.73951401      14.07410715      23.88153230       0.02934621       0.02592458      -0.01917367       0.04880793
H        9.22966275      11.58483549      23.88521235      -0.01644651      -0.00970122      -0.02531057       0.05645313
H       10.03998330       9.22505211      24.21957543      -0.04491449      -0.01036102      -0.01164283       0.01657742
H       -1.93756352      10.66713327      24.22033557      -0.00602589       0.01458282       0.00215965       0.03456125
H       -1.69791800      10.39266957      25.96943422      -0.02131780       0.00343386       0.00410363       0.03515635
H       -2.41622966       9.11530122      24.95454212       0.00625604       0.02542680      -0.00368791       0.05508478
H        7.32635896      15.37697829      26.97145828      -0.00320234      -0.00115791       0.00757121       0.05742523
H        5.83580397      15.81588913      27.84513792       0.00206189      -0.02162817       0.00936152       0.04002726
H        6.20938924      16.58155751      26.28051932       0.00850212      -0.00757777      -0.01871098       0.03332506
H        7.46510957      15.63817153      24.10539577      -0.01414315      -0.00321521       0.00872956       0.04687992
H        8.78823661      15.86941825      22.93799160       0.00814280       0.00115598      -0.01342890       0.06314596
H        7.20793817      15.27084860      22.37673952      -0.00826696      -0.00620632       0.00238010       0.04046029
H        4.75987655       8.76107643      19.18766996       0.00624150       0.01121439       0.03562385       0.04785555
H        3.35631812       6.68779781      20.26729163       0.02456654      -0.00395087       0.02265621       0.05254339
H        2.40826277       5.30996648      22.06893492       0.01467485      -0.00339420       0.00252142       0.04252655
H        2.50957668       4.90321423      26.33957200       0.02294153      -0.00125523      -0.00341958       0.03590427
H        3.62980688       5.95759629      28.35448239       0.00146302       0.02633748      -0.02484146       0.05240777
H        4.97325087       7.92376436      29.68454288       0.00777577       0.01172437      -0.04495062       0.04877965
H        6.06604599      10.82092171      22.11360743       0.00059338      -0.01178224      -0.00064847       0.05925616
H        6.10366575      12.28345399      20.16291099      -0.00642167       0.01398214      -0.01608134       0.04767925
H        5.38596083      11.04161494      19.13936658       0.02815413      -0.01985142       0.00607630       0.04761783
H        4.45251448      11.73335022      20.47080533      -0.00512893       0.01380324      -0.00612363       0.04661130
H        8.08895829      10.63663699      20.70115546       0.00507635       0.02048609      -0.00863014       0.04912724
H        7.68425735       9.07819828      21.42121075       0.01678068       0.01297975       0.00185588       0.05418480
H        7.31911788       9.38044798      19.72203873      -0.01104421       0.02667612      -0.00960603       0.04707568
H        0.45088784       2.45471811      22.75328373      -0.00857300      -0.01276348      -0.00553030       0.03680615
H        0.50160351       4.13950257      22.24968195      -0.00177530      -0.00339975      -0.01063812       0.03618992
H        1.94958030       3.12123794      22.11628495      -0.00401810      -0.01219428      -0.00032164       0.03681770
H       -0.31107258       4.89320383      24.51493512      -0.00825059      -0.00345801       0.00686843       0.03777410
H        0.40898591       4.23764211      25.98084015      -0.00436652      -0.00924323       0.00580727       0.03608918
H       -0.48017188       3.17477068      24.89275329      -0.00993882      -0.01488035       0.00165932       0.03706365
H        2.47445389       2.73926362      25.80979711      -0.00457863      -0.01323908       0.01191630       0.03647890
H        3.16263742       2.38411657      24.23000784      -0.00198217      -0.01989702       0.00093068       0.03820742
H        1.63070035       1.64727449      24.71458882      -0.00980212      -0.01701181       0.00194185       0.03716167
H        6.16295322      10.36717072      26.98591653      -0.00471396      -0.00720463       0.00121965       0.07249812
H        7.78924974       8.79242232      27.98900824       0.01466990       0.01006954       0.00480432       0.05224813
H        7.13516128       9.09784940      29.60055994      -0.02268678       0.02600004       0.00078615       0.04564063
H        7.92543826      10.39885249      28.70678831       0.00598338       0.01135790       0.00895059       0.04914413
H        5.72210168      11.83966233      28.91180973      -0.00698548       0.01346127       0.01667734       0.04967484
H        4.91760395      10.52478429      29.77694149       0.03067863      -0.01302463       0.00437784       0.04473424
H        4.22420036      11.15176766      28.27718917      -0.00410294       0.02177762       0.00727335       0.04952643
