107
Properties=species:S:1:pos:R:3:forces:R:3:charge:R:1 energy=-5832.369738199828 free_energy=-5832.369738199828 dipole="2.1648720031196436 -1.462865728140802 0.5800579186970046" pbc="F F F"
Ir       6.84816872       4.94653968       7.98415984       0.01179701      -0.01143373       0.00825164      -0.06472972
F        0.98088650      -0.47492493       4.16103061      -0.00818905      -0.00429178      -0.00791193      -0.20126822
F        2.38094455      -0.00101987       2.59822641      -0.00492265       0.00025438       0.00488029      -0.20669793
F        2.92985808      -1.38813063       4.14369174      -0.01452929       0.00723584      -0.00078061      -0.20847340
F        6.11552329       7.84398493       1.94003552       0.01171670       0.01983188      -0.01380747      -0.18768003
F        4.67284670       8.01330906       3.52682866      -0.00296954       0.00805206       0.00522698      -0.21092452
F        5.01756407       6.11260848       2.58817901       0.00613381      -0.01005922       0.01568998      -0.21810366
F        4.79904373       4.55327803      13.85898109       0.03830435      -0.00033831       0.02369983      -0.21513136
F        3.26804549       3.55056822      12.73866276      -0.02937209      -0.02726313      -0.01233886      -0.21023864
F        3.89539413       5.52878076      12.17100224       0.00864297       0.00623962      -0.01994431      -0.19134110
O        9.68844489       5.84032041       6.56789098       0.01349132       0.01251189       0.00066912      -0.24624710
O        8.34305494       2.26530069       9.33812590      -0.00369084      -0.00469494      -0.00156495      -0.24364221
N        5.85520762       2.38679498       6.26195993       0.00071982      -0.00013739       0.00244696      -0.00979774
N        2.40824977       2.95461919       5.88046472      -0.00812903       0.00353671       0.00313028      -0.21686377
N        4.39264044       3.88977629       6.88166473      -0.01539108      -0.01174559      -0.00358624       0.01508120
N        6.06222487       7.42172309       9.24359710      -0.00267719       0.01698878       0.00263770       0.02395720
N        5.49041730       9.47517953      10.37408484      -0.00760606      -0.00144024       0.00927690      -0.21261842
N        8.16186846       7.25763419       9.83087187      -0.00013674      -0.00706374      -0.00045584      -0.00877337
N        8.90117250       4.07614491       7.92369445       0.02485975      -0.00796670      -0.00032062      -0.16989412
C        5.72210959       3.54702897       6.95148950      -0.02568732      -0.01094017      -0.00465343       0.01606227
C        4.63923833       1.98153441       5.77065633       0.01201511       0.01062546      -0.00653853       0.03583397
C        4.18505524       0.90484532       5.03243117       0.01158591       0.00272694      -0.01009306      -0.02514005
C        2.82300084       0.89545444       4.73968564       0.00022840       0.00279125      -0.00103075      -0.04517093
C        1.98617638       1.92986700       5.16644188       0.00673014      -0.00498709       0.00458123       0.05923906
C        3.69698247       2.96573008       6.17121065       0.00469607      -0.00149130      -0.00980723       0.13275702
C        3.98318123       5.09386854       7.47630198      -0.00560381       0.00055676       0.01445438       0.05351202
C        2.71854158       5.65115605       7.51219465      -0.00594079       0.00528606       0.01011533      -0.04886036
C        2.53140554       6.88162717       8.14994223      -0.01905595       0.01304884      -0.00376360       0.01560969
C        3.61049753       7.53528396       8.74353924      -0.00865065       0.00168272      -0.00557925      -0.05014485
C        4.86471054       6.95203224       8.68889031      -0.00535442      -0.00035311      -0.00466433       0.05951647
C        5.05657226       5.74071476       8.05809362       0.01770698      -0.00615482      -0.00227376      -0.04274140
C        6.31364930       8.50270992      10.02473322       0.00153616       0.00008158       0.00855138       0.13318440
C        6.00048428      10.41661031      11.14300100       0.00092165      -0.00747483      -0.00279402       0.05857131
C        7.32953492      10.41889613      11.57461222       0.00684379       0.00170582      -0.00338156      -0.04569477
C        8.20752946       9.40280670      11.20398421      -0.00037982      -0.00922377      -0.00726408      -0.02566111
C        7.67798070       8.40546598      10.40709988       0.00639080      -0.00658288       0.01832650       0.03613967
C        7.19142032       6.65504518       9.09994743      -0.00934195       0.02925121       0.00133423       0.02135835
C        7.12407107       1.72301902       6.02646951       0.00666477       0.00417218       0.00414911       0.04171954
C        7.14950873       0.35182061       6.69760104       0.01416654       0.00260498      -0.00010167      -0.11621291
C        7.42712815       1.67263902       4.53015966       0.01036935      -0.00041678       0.00524024      -0.11687135
C        2.27479781      -0.23421452       3.92063990      -0.01388933      -0.00193064      -0.00107970       0.48742236
C        1.13044476       7.47288460       8.17515390      -0.01626711       0.00874183      -0.00098366       0.02707890
C        0.65861683       7.69194848       6.73101511      -0.00568042       0.00105217      -0.01384045      -0.11243782
C        0.19525916       6.49260558       8.89607483      -0.00978890      -0.00536814       0.00585065      -0.11221930
C        1.07602525       8.81603192       8.90724898      -0.00162558       0.01026364       0.00677481      -0.11581965
C        7.85604554      11.55085214      12.40366483      -0.00884525       0.01420212       0.00284385       0.48736621
F        6.92096566      12.12482730      13.16813974      -0.00533200       0.00985992      -0.00145151      -0.20052497
F        8.37644238      12.53119089      11.63696473      -0.00091737       0.01224470       0.01391393      -0.20930703
F        8.84673023      11.16592059      13.22763679      -0.01610893       0.00525999      -0.00525241      -0.20788639
C        9.48334117       6.70066574      10.05330351       0.00009554      -0.00510783      -0.00359960       0.04193502
C       10.56099402       7.59809303       9.45061469       0.00642450      -0.01121706      -0.00127383      -0.11739268
C        9.69196039       6.41188823      11.53950546       0.00851012      -0.00782505      -0.00583243      -0.11586509
N        7.94738884       7.22041885       3.76408394       0.02917122       0.00392782      -0.01674013      -0.21880906
C        7.24949579       5.88268159       6.17825580      -0.01825239      -0.01182095       0.00994887      -0.07256890
C        6.30335730       6.26982475       5.21962948      -0.01537524       0.00566965      -0.00871796      -0.04346215
C        6.69465351       6.89698710       4.05036355       0.02088246       0.01083958      -0.01457612       0.04992605
C        8.86495384       6.86844153       4.63934466       0.01187495      -0.01511750      -0.00313835       0.04032431
C        8.56447255       6.17676935       5.81156317      -0.01473873      -0.01700460      -0.00432298       0.12285581
C        9.87356376       4.68996089       7.22631971       0.01238055       0.00145920      -0.01465142       0.22888697
C       11.18367449       4.21025444       7.18482446       0.00744813      -0.00718483       0.00037095      -0.07354664
C       11.49170909       3.03623147       7.84007028      -0.00341383      -0.00968583       0.00842435      -0.01393315
C       10.49625544       2.39274742       8.54778623      -0.00863183      -0.00981437      -0.00233814      -0.07428701
C        9.22053276       2.95717014       8.59527427       0.00016079      -0.00513417       0.01757846       0.22518852
N        5.65882154       4.39432763      10.60264319       0.02147870      -0.01978822       0.00755873      -0.22487164
C        7.30372991       2.79957687      10.09512399       0.01039712       0.02090982      -0.01438726       0.12479111
C        7.00702422       2.08108733      11.24645838       0.01028013       0.01457620      -0.01526721      -0.03457301
C        6.01510940       2.55463869      12.08938757       0.00231491      -0.00854907      -0.00719425      -0.04527342
C        5.39704419       3.73982087      11.71813716      -0.00768741      -0.00894844       0.01048880       0.05249775
C        6.58124094       3.95514622       9.74785440       0.00869663       0.00879247      -0.01964340       0.00044832
C        5.64566220       7.22936857       3.02295783      -0.00218644       0.01943772      -0.02285994       0.48204238
C        4.34314221       4.35034510      12.60461471      -0.03368126       0.00823575       0.03082213       0.48141891
H        4.81501653       0.09980033       4.68949623       0.01042634       0.00268745       0.01108961       0.06377966
H        0.93339993       1.92484358       4.92466013       0.00527997      -0.01219475       0.00959865       0.07497995
H        1.89947206       5.12747580       7.04773364      -0.00589801       0.00302861       0.00238121       0.06809030
H        3.49930531       8.47759901       9.24946054      -0.00780543       0.00120295       0.00278310       0.07864957
H        5.32427244      11.20762953      11.43288945       0.00931273      -0.00286740      -0.00093510       0.07502722
H        9.23191385       9.42758395      11.53914387       0.00767966      -0.01207570      -0.00377300       0.06326721
H        7.87957478       2.35462857       6.50158782      -0.02140897       0.02468710       0.00717586       0.06137147
H        6.43290834      -0.33122211       6.24985222       0.00770307       0.02248575       0.00488000       0.05235396
H        6.91887987       0.45645771       7.75572119       0.00014257      -0.01573071      -0.00981233       0.05290703
H        8.14194123      -0.08045217       6.60478871       0.00359771      -0.00612328      -0.01054704       0.05454164
H        7.34079211       2.66995236       4.10253081       0.00364099      -0.01574417      -0.00656133       0.04959991
H        8.44259534       1.31829711       4.37534222       0.00050745      -0.00735190       0.00160587       0.05451556
H        6.74865272       1.00980851       4.00122634       0.01321060       0.00944573       0.00999710       0.05422832
H       -0.32956271       8.14617976       6.72284959      -0.00225840      -0.00099654       0.01258761       0.04292498
H        0.60675372       6.75635772       6.18225533      -0.00515179      -0.01135417       0.00501660       0.04116740
H        1.34637359       8.35304397       6.20852764       0.00044840       0.00729504       0.00072528       0.03978344
H        0.55974981       6.30325965       9.90308198      -0.00265964       0.00729447       0.00611027       0.04103438
H       -0.80707275       6.90942637       8.96262526      -0.00106485       0.00748926      -0.00316963       0.04265778
H        0.13468183       5.54255091       8.37340939      -0.00390621       0.00328536      -0.01052752       0.04035028
H        0.05613784       9.19478557       8.89926562      -0.00617254      -0.01695220      -0.00940861       0.04196507
H        1.71017118       9.55239637       8.42010323      -0.00532965       0.00320586      -0.00817033       0.04087683
H        1.38595566       8.70804358       9.94332734      -0.00759057      -0.00564959       0.00760642       0.04354393
H        9.49488829       5.74494149       9.52388648      -0.03124243       0.00525357      -0.01111089       0.05913500
H       10.34662267       7.77060506       8.39807053       0.01891581       0.00733691       0.00777187       0.05612446
H       11.52755651       7.10791057       9.52903120       0.00893351       0.00757795       0.00593750       0.05312907
H       10.61816802       8.55732076       9.95734591      -0.00786239      -0.01955234      -0.00661341       0.05236244
H        9.75598296       7.32356977      12.12618148      -0.00434745      -0.01389129      -0.01318540       0.05489008
H        8.86497965       5.81298214      11.91735691       0.00861598       0.01417859       0.00428796       0.04707650
H       10.61270244       5.85137793      11.67741763       0.01061061       0.00492122      -0.00994018       0.05313738
H        5.24990932       6.09433890       5.37545100      -0.03044305      -0.00393506       0.03413859       0.04761223
H        9.88490544       7.13589938       4.40219919       0.01007613      -0.00834727      -0.00982089       0.05872965
H       11.91353847       4.76901427       6.62456308       0.00446385      -0.01058862      -0.00713296       0.07160787
H       12.49047691       2.63238084       7.80459531       0.00880155      -0.00970275       0.00196865       0.06453400
H       10.67054479       1.47637118       9.08519011       0.00747120       0.00558336       0.01329894       0.06971061
H        7.55076207       1.17450784      11.46712427      -0.00295658       0.00845848       0.01012372       0.05556833
H        5.74232857       2.03581764      12.99396890       0.00067299       0.00153875       0.00419308       0.05574267
