107
Properties=species:S:1:pos:R:3:forces:R:3:charge:R:1 energy=-5832.341315389885 free_energy=-5832.341315389885 dipole="2.054895844434289 -0.8891547894020931 0.004901343422173285" pbc="F F F"
Ir       6.84920019       4.94428430       7.99035465       0.03574078      -0.01577080       0.00004528      -0.05879328
F        2.95494156      -1.37578670       4.13378766      -0.01430522      -0.01213366      -0.00609537      -0.20773125
F        1.00073617      -0.47501227       4.14678829      -0.01712466       0.00689041       0.00031834      -0.20041189
F        2.40270027       0.01202765       2.59007095      -0.00939199      -0.00457666      -0.01347571      -0.20642263
F        5.00907294       6.07591435       2.60373394      -0.01126761      -0.01924338      -0.00876525      -0.21797399
F        6.07624782       7.82244800       1.94412392       0.03616495       0.01411870      -0.00410432      -0.18670106
F        4.65176137       7.97078063       3.54821709      -0.00541361       0.01201167       0.00871921      -0.21118364
F        4.89867004       5.25838283      13.41727963       0.00528105       0.01878994       0.01421809      -0.21784300
F        3.31380063       4.13812050      12.49817093      -0.01347876      -0.00674658      -0.00627920      -0.21115429
F        4.49441450       3.24579429      14.05817922       0.02103745      -0.03894649       0.00445542      -0.18678771
O        9.68119875       5.88110772       6.60125737       0.02574993       0.00556834      -0.03758697      -0.24783168
O        8.29577784       2.25126759       9.25189428       0.01437488      -0.02378411       0.03799233      -0.24848804
N        5.86140789       2.38525057       6.27153666      -0.00348084      -0.00697613      -0.00795297      -0.00747462
N        2.41869944       2.96578106       5.86832369      -0.00459266      -0.01559409      -0.00488616      -0.21583971
N        4.39812479       3.89032347       6.88772194      -0.02197668      -0.01215648      -0.01758408       0.01198287
N        6.07618833       7.43618232       9.21999748      -0.00726419       0.02353214       0.01823863       0.01140069
N        5.50349058       9.48435156      10.35354290       0.00822547       0.01210828       0.01143243      -0.21771245
N        8.17008056       7.25521786       9.82921493       0.00610340       0.01394195      -0.00092929      -0.00906158
N        7.93414415       7.22456913       3.77768234       0.02661369       0.01169058      -0.00872151      -0.21725499
N        8.90080901       4.08936491       7.91324311       0.00472475      -0.00307990       0.00047422      -0.16833124
N        6.19634561       2.42783614      12.14893788       0.01254844      -0.02648220       0.01094526      -0.21784774
C        5.72670778       3.54154244       6.96433993      -0.02347769      -0.00870969      -0.01688725       0.01702254
C        4.64730495       1.98698099       5.77032994       0.01251643      -0.01008678       0.00551354       0.03622327
C        4.19676806       0.90836712       5.03217746      -0.00258009       0.01509474       0.01455558      -0.02430910
C        2.83701792       0.90414258       4.73142382      -0.00234059       0.00296283       0.00455755      -0.04409146
C        2.00033532       1.94185122       5.15113106      -0.00578867      -0.00917822       0.00381751       0.05964117
C        3.70530283       2.97221624       6.16619480       0.00307553      -0.01633229      -0.00473576       0.13272772
C        3.98767815       5.10061907       7.47098002      -0.01361540       0.00459529      -0.00329145       0.05219262
C        2.72038431       5.66262345       7.49265255       0.00264576       0.01015204       0.00129494      -0.05355572
C        2.53484686       6.89747496       8.11644699       0.00104987      -0.00122288      -0.00162288       0.01461357
C        3.61987891       7.55526839       8.70670964      -0.00530178      -0.00577646       0.00241598      -0.04914846
C        4.87366973       6.97321101       8.66174876      -0.01150249       0.00725408      -0.00116167       0.05281124
C        5.06161482       5.74769176       8.04924501       0.00924205      -0.00257596      -0.00041009      -0.05416266
C        6.32866718       8.51347063      10.00635240       0.01324092       0.01290053       0.00117738       0.13320960
C        6.01473507      10.42293433      11.12568529       0.00021583       0.00727541       0.00691770       0.05963005
C        7.34163900      10.42046979      11.56312300      -0.00231116      -0.00076282      -0.00168233      -0.04425202
C        8.21846426       9.40079861      11.20071081      -0.01356095      -0.00566920      -0.01730503      -0.02475384
C        7.68784691       8.40643580      10.40041692       0.01480217      -0.00086598      -0.00465716       0.03649106
C        7.20428516       6.65962377       9.08668386      -0.00994104       0.02304352       0.02047692       0.01675511
C        7.12695309       1.71600498       6.02767744      -0.01384112      -0.00772420      -0.01085304       0.04183121
C        7.41581229       1.65729285       4.52824640       0.00806118       0.01567994       0.00032861      -0.11728039
C        7.14639765       0.33127112       6.67141572       0.00202249       0.01023005       0.01163589      -0.11719250
C        2.29324902      -0.22643471       3.91096300      -0.00889673      -0.00511129      -0.00809601       0.48777571
C        1.16717048       7.56396487       8.18279847       0.01896184      -0.01025393      -0.00215377       0.02714157
C        0.08333623       6.73324573       7.49216112      -0.00138953      -0.00166138      -0.00084445      -0.11504426
C        0.77562294       7.74635695       9.65603919       0.00661394      -0.00514647       0.00268085      -0.11224992
C        1.24499269       8.93226131       7.49133355       0.00835638      -0.00044634      -0.00391297      -0.11248246
C        7.86656671      11.54764374      12.39987936      -0.00108028       0.01239419       0.00728862       0.48781840
F        6.92968839      12.12003746      13.16224269      -0.01553269       0.01072973       0.00336876      -0.19971420
F        8.39456103      12.52984544      11.64203777      -0.00044274       0.01450925      -0.00024911      -0.20845344
F        8.85073416      11.15119149      13.22469592      -0.00154768       0.01533301       0.01502069      -0.20681339
C        9.49170842       6.70024749      10.06427940      -0.00202320       0.01922299       0.00629177       0.04215799
C       10.57579048       7.60500982       9.48268372      -0.00429755      -0.00472157      -0.01453374      -0.11755031
C        9.70247562       6.43509371      11.55492520      -0.00943977      -0.01409958      -0.00676697      -0.11723299
C        7.24719101       5.85829227       6.17563913       0.02355359      -0.00719406       0.02556574      -0.07054091
C        6.30045084       6.22113640       5.20908030       0.01407071       0.00910574       0.02184239      -0.04341408
C        6.68650582       6.87316690       4.05092444       0.02436933       0.00293113       0.00600708       0.05060473
C        8.85428865       6.88528653       4.65621577      -0.00098039      -0.01561253       0.00180493       0.04069058
C        8.55946531       6.18653536       5.82634585       0.01282806      -0.01481539      -0.00734870       0.12367054
C        9.88012252       4.72328142       7.24653157      -0.00583407       0.01119544      -0.01292286       0.22805343
C       11.19500698       4.25547700       7.22703835      -0.02194473      -0.01657068      -0.01553281      -0.07302348
C       11.49420957       3.07038517       7.86944336      -0.00901450      -0.00021512       0.00148457      -0.01351922
C       10.48807888       2.40139343       8.53873299      -0.00668317       0.02292493       0.01887685      -0.07348556
C        9.20790704       2.95651722       8.56611123      -0.01305511      -0.00635665       0.01569413       0.22664352
C        7.30509073       2.79529784      10.07352609       0.01845258       0.00045348       0.00728588       0.12326793
C        6.58019075       3.95423500       9.78215292       0.02276275      -0.00956924      -0.02350439      -0.07087907
C        5.67377512       4.32170376      10.78429379       0.00505980      -0.01415313      -0.01944630      -0.04398188
C        5.62851769       7.19998247       3.03084177      -0.00716688       0.00185872      -0.01567634       0.48242753
C        7.06836248       2.05844449      11.23373960       0.00528669       0.01067481      -0.00279824       0.04007947
C        5.53167261       3.55165191      11.92529551       0.01569953      -0.01862913      -0.00466836       0.05031159
C        4.56665492       4.02209004      12.98071649      -0.00654606       0.00176102       0.01822551       0.48239982
H        4.82695004       0.09648018       4.70393245      -0.02521568       0.03081147       0.00139512       0.06560931
H        0.94907688       1.93814260       4.90491012      -0.01035909      -0.01340147      -0.00229949       0.07620834
H        1.90872949       5.13475040       7.02329264       0.01201538      -0.00810467       0.01344682       0.07584637
H        3.49575579       8.50334612       9.20347761       0.01508899      -0.00025118      -0.01682377       0.06882800
H        5.33997031      11.21546918      11.41254448       0.00069982       0.01384274       0.01233155       0.07538617
H        9.24191185       9.41951278      11.54135219      -0.03736696       0.00347713      -0.00527576       0.06528670
H        7.88443802       2.34476968       6.50400178      -0.00953596      -0.03107008      -0.02004733       0.06216662
H        7.32677309       2.64689678       4.08545208       0.01632706       0.02078231       0.01020480       0.04872653
H        8.42676061       1.29394463       4.36522249       0.00587651       0.01226587       0.00915031       0.05530364
H        6.72885010       0.99034423       4.01561409       0.02222848       0.01245559      -0.00093074       0.05438164
H        8.14004466      -0.09872003       6.57948343      -0.00028602       0.01059538       0.00143250       0.05546692
H        6.89773685       0.40005495       7.72744120       0.01465187       0.02373798       0.01526947       0.05542789
H        6.43825094      -0.33855736       6.19167580       0.01194479       0.00353378       0.01861134       0.05257454
H       -0.02213425       5.76043622       7.96535640      -0.01418192      -0.00572253       0.00626609       0.04124545
H       -0.87252808       7.24661929       7.56471539       0.00032996       0.02116129       0.01104907       0.04292515
H        0.31072831       6.59602528       6.43818788      -0.00832223       0.00423061      -0.01093341       0.04195786
H        0.76171960       6.78500725      10.16412813      -0.00340698      -0.01292083       0.00225480       0.03976815
H        1.47623308       8.39447129      10.17394618       0.00348909       0.00516380       0.00847046       0.04148613
H       -0.21456062       8.18985360       9.72990269      -0.00272349      -0.00266753      -0.01915739       0.04384598
H        0.26926661       9.41239278       7.49752507      -0.00881364      -0.01616014       0.00611356       0.04385304
H        1.94875935       9.58942590       7.99315912       0.00626459       0.00957366       0.00251286       0.04105072
H        1.56531977       8.81543295       6.45878901       0.00064875      -0.00742756      -0.01311744       0.04032057
H        9.50362567       5.74194858       9.53855674       0.01548352       0.02841048       0.01964083       0.05913232
H       10.62757948       8.55065531      10.01483617       0.00832297      -0.00799064      -0.02160921       0.05249366
H       11.54227946       7.11461778       9.56211853      -0.00986866      -0.00820154      -0.00086845       0.05408910
H       10.37691400       7.80787254       8.43331483      -0.00636560      -0.02384055      -0.01877352       0.05596616
H        9.76701690       7.35940339      12.12149886       0.00259875      -0.02526960      -0.00371831       0.05547440
H       10.62827569       5.88419444      11.69779001      -0.00936762      -0.00942143      -0.00826139       0.05514003
H        8.88206476       5.84387977      11.95608163      -0.00755087      -0.02256903      -0.01625667       0.04831147
H        5.25177670       6.01037915       5.35578247      -0.01620110       0.02326722      -0.00024600       0.04703081
H        9.87037828       7.17533170       4.42526917      -0.01963598      -0.02018989       0.00291441       0.06018618
H       11.93597503       4.82386220       6.69025447      -0.02012556      -0.00912609       0.01092945       0.07170118
H       12.49739770       2.67547686       7.85134105       0.00028177      -0.00315986       0.00084374       0.06541026
H       10.66117563       1.47790532       9.06522454      -0.01114181       0.01463100      -0.00883118       0.07138731
H        5.06155305       5.20470425      10.67651954      -0.02276365      -0.00086583       0.00582965       0.04818506
H        7.60646494       1.13989795      11.42561790      -0.00403941       0.02843674      -0.00504281       0.06022691
