82
Properties=species:S:1:pos:R:3:forces:R:3:charge:R:1 energy=-4069.745520897549 free_energy=-4069.745520897549 dipole="2.1748512085532288 -0.3773578823243705 -0.32546603437675087" pbc="F F F"
Ir       5.02918978       7.60903709       5.14165037      -0.02343790       0.00458218       0.03614027      -0.04303147
N        6.65805705       7.11195430       6.25272969       0.02370416      -0.00293070       0.02810785      -0.10331496
N        4.20670542       7.39703163       7.12486809       0.00634195      -0.00524513      -0.01741061      -0.06175114
N        3.04918547       7.51310235       7.71842277       0.00775129       0.00983880      -0.03234986      -0.21613725
N        5.66378078      10.68698757       5.89430417      -0.00781592       0.01718775      -0.00914387       0.01786176
N        4.12515269      10.28989376       4.44539499      -0.00714830       0.01608591      -0.00108342       0.03495136
N        3.26448123       5.87163312       3.60301659      -0.01255988      -0.01456124      -0.00635902       0.03568037
N        4.45482141       4.44874640       4.68862524      -0.01359554      -0.01492452      -0.01516618       0.01782713
C        6.48943170       7.57979694       3.71279645       0.01018204       0.00078069      -0.01776431      -0.03666062
C        6.35365622       7.71537130       2.31732828      -0.00338608       0.00587995      -0.01370613      -0.03471590
C        7.43521492       7.68257392       1.48132475      -0.00026907       0.00859130       0.00454255      -0.03541542
C        8.74671788       7.68632433       2.00014939      -0.00829172      -0.00241405      -0.00970107       0.00786614
C        9.86763126       7.81024618       1.15518570      -0.00905152      -0.00886652      -0.00103369      -0.03545203
C       11.12549226       7.94665557       1.67181937      -0.00926601       0.00652596      -0.01533897      -0.03372403
C       11.29615737       8.01986057       3.05911404      -0.00369616      -0.00737761       0.00931354      -0.03264589
C       10.22962813       7.85953088       3.90269426      -0.00103784      -0.00298047       0.00545316      -0.04303999
C        8.93119954       7.61943963       3.40708825       0.01426164      -0.00003536      -0.01539122       0.00716867
C        7.78404371       7.40662506       4.23113007       0.00571555       0.02713873      -0.02796026      -0.01855673
C        7.84771772       7.00312059       5.63039170       0.00778369       0.00518509      -0.02202161       0.07893306
C        8.92542028       6.44452376       6.32197962      -0.00356852      -0.00000885      -0.00530205      -0.05425647
C        8.78716528       6.14453454       7.66823537      -0.00688352       0.00125131      -0.00034024      -0.02169327
C        7.58262714       6.36483762       8.31445608      -0.01229695       0.00295868      -0.00222864      -0.05391575
C        6.50609625       6.81880938       7.55456852      -0.02116329      -0.00287095       0.02363205       0.07467609
C        5.15776886       7.00798085       8.02226781      -0.01513215       0.00182886       0.00215017       0.02294976
C        4.55120814       6.87269994       9.27078472      -0.01420528      -0.00066797      -0.00265293      -0.07808638
C        3.22261762       7.20839244       9.01446933      -0.00064457       0.00888399      -0.03360060       0.01374567
C        2.09762210       7.22715122       9.97737398       0.01275484       0.00670435      -0.03909090       0.48214302
C        3.55489752       8.12406144       3.93349479       0.00128439       0.00192649      -0.03218035      -0.05604088
C        3.29477155       9.47101728       3.67503170      -0.00236523       0.01654596       0.02122140       0.05783430
C        2.33429732       9.85464213       2.75657737       0.00415854       0.01138598       0.01884613      -0.04398560
C        1.62973794       8.85193154       2.09042543       0.01718568      -0.00599645       0.02616207      -0.03684982
C        1.86814317       7.49556831       2.31140172      -0.00062753      -0.01362273       0.00641342      -0.04452845
C        2.83919374       7.15146686       3.23509463      -0.01154106      -0.02530700       0.00725504       0.05726374
C        5.05052831       9.68404084       5.24765392       0.00358626       0.01648144      -0.01488540       0.00713091
C        4.17541279      11.64534657       4.59613218      -0.01579443       0.01353230      -0.01591487      -0.01574921
C        5.14338874      11.89610448       5.50904888      -0.01749327       0.00740568      -0.01151757      -0.01473466
C        6.68448305      10.51852125       6.90507328       0.00092882      -0.01175666      -0.00135516       0.03826746
C        6.15132419      10.99687611       8.25318911       0.01124231       0.00213538       0.01069495      -0.11395169
C        7.96875057      11.22573077       6.48304541       0.00950881       0.00276036       0.00690957      -0.11495445
C        4.28728958       5.76785847       4.50501188       0.00078870      -0.01694501      -0.02302451       0.00636579
C        2.81726031       4.63497326       3.23938180      -0.02260450      -0.00089862      -0.01384221      -0.01580074
C        3.56434922       3.73808138       3.92489562      -0.02205875       0.00366074      -0.01003394      -0.01493053
C        5.39659959       3.84861046       5.60754189       0.00640370       0.00827067       0.00438937       0.03893304
C        6.32742952       2.89502727       4.86422802       0.00919044      -0.00707738       0.00680915      -0.11574921
C        4.63361194       3.16843168       6.74140928       0.00807589      -0.00788483       0.01181549      -0.11448975
C        0.62160113       9.25030686       1.05721640      -0.00393896      -0.00337920       0.00622937       0.48559307
F        1.61261329       5.98797576      10.23988220       0.02635168       0.02372573       0.02755548      -0.22534941
F        2.46511057       7.72849144      11.17921036      -0.01623481      -0.04342797      -0.01540880      -0.22418591
F        1.05034656       7.95355463       9.57118536      -0.00832121       0.01320557       0.01505964      -0.20372444
F        0.02404164      10.42148465       1.32651659      -0.00729383       0.01433145       0.00126351      -0.20840993
F        1.17848701       9.39900378      -0.16745153       0.00471545      -0.00210491      -0.00330704      -0.21720862
F       -0.36012468       8.34914123       0.90104172      -0.01629846      -0.01418871      -0.00699867      -0.20823488
H        5.36475717       7.81362980       1.89057736      -0.00468707      -0.00068944       0.01690625       0.03141608
H        7.30284991       7.70960281       0.40787848      -0.00205028       0.00663387       0.02453552       0.03132734
H        9.70914455       7.82117360       0.08635285      -0.01054407      -0.00108138      -0.00665764       0.03040599
H       11.98137955       8.03867723       1.02085575       0.01674524       0.01425684      -0.01521724       0.02820518
H       12.27795780       8.21935241       3.46305947       0.00999447      -0.01160266       0.00935629       0.02690922
H       10.38196125       7.98212048       4.96281329      -0.01089603       0.00390379       0.02170045       0.02980312
H        9.84548996       6.21538578       5.81292514       0.00107269      -0.00884280       0.00759118       0.04443939
H        9.62505473       5.73590607       8.21286719       0.00399838      -0.01717877       0.00961407       0.03500457
H        7.46140442       6.16310627       9.36616824      -0.01449395      -0.01150591      -0.01770105       0.04016107
H        4.99064692       6.58946402      10.20515622      -0.02388370       0.00401928      -0.00605491       0.01737523
H        2.11561164      10.89082543       2.55032509       0.00539875       0.00074059      -0.01154851       0.05596468
H        1.29727486       6.75619656       1.77160938       0.00790104      -0.00153375      -0.01427611       0.05602913
H        3.53539492      12.31927812       4.06594418      -0.00561537      -0.00211257      -0.00630728       0.05991386
H        5.48592911      12.83256559       5.89897427       0.00587754      -0.04214275       0.00982565       0.05640754
H        6.87859091       9.44491821       6.96443117       0.00206197      -0.02580681      -0.00249619       0.06581759
H        5.94800802      12.06461493       8.24089076       0.01551763       0.01758361      -0.00944880       0.04862155
H        5.22853541      10.47244596       8.49119889       0.00743538      -0.00913249       0.01345852       0.05477883
H        6.87732397      10.79230371       9.03398436       0.01594258      -0.00705595       0.02086094       0.05255069
H        7.82658898      12.30123971       6.41851095      -0.01379581       0.01510239       0.01185390       0.04901369
H        8.29046810      10.85726822       5.51127202       0.01556969      -0.00005712      -0.00213856       0.04903049
H        8.75263776      11.02680625       7.20750232       0.02139287      -0.00440177       0.01073973       0.05250428
H        2.02060575       4.48073986       2.54178997      -0.00692888       0.00575813       0.00391213       0.06035913
H        3.51795882       2.66838817       3.92056320       0.02642384       0.03537281       0.01871605       0.05690825
H        5.98934726       4.66971618       6.01837117       0.00882462       0.02448344       0.01089420       0.06340763
H        5.78492226       2.04280358       4.46364449      -0.01760631      -0.00925141       0.00891389       0.05000106
H        7.09098349       2.52580422       5.54200006       0.02239649      -0.00519779       0.01085515       0.05307016
H        6.81369545       3.41638440       4.04273107       0.01392811       0.00140596       0.00170691       0.04879286
H        5.32884119       2.78188332       7.47999954       0.01770841      -0.00224235       0.02343326       0.05287096
H        3.97365221       3.88493365       7.22503439       0.01208178       0.00466308       0.02177541       0.05559707
H        4.03171298       2.34395407       6.36762160       0.00633644      -0.01740652      -0.00865325       0.04939751
