67
Properties=species:S:1:pos:R:3:forces:R:3:charge:R:1 energy=-3895.30765169662 free_energy=-3895.30765169662 dipole="2.044221501851447 -0.4980476729517906 0.6814740111966643" pbc="F F F"
Ir       5.03229096       7.59917310       5.13755227      -0.01844884      -0.00133538      -0.00076242      -0.04254926
N        6.66454319       7.10594269       6.24932017      -0.02723093       0.00247894      -0.01272816      -0.09046686
N        4.22120013       7.39566554       7.09526556       0.00817173       0.00119901      -0.00753410      -0.04911152
N        3.05576804       7.52292535       7.66592419       0.00102904      -0.00180895      -0.01983961      -0.20940730
N        5.65637748      10.66840023       5.92043374       0.00300354      -0.00961108       0.02265506       0.03081844
N        4.12408586      10.28599496       4.46083392       0.00481536       0.00043156       0.01031416       0.03933198
N        3.25797473       5.86442420       3.59579159       0.00474120      -0.00634979       0.00284330       0.03940347
N        4.44994599       4.44976478       4.69121878       0.00698841      -0.00098633       0.02600793       0.03212948
C        6.48342991       7.60215162       3.69580753      -0.01755733      -0.00251136      -0.00058496      -0.03870884
C        6.38647734       7.84831407       2.32945447       0.01110258      -0.00163943      -0.00433913      -0.03141221
C        7.50483624       7.80682393       1.50700275      -0.00477482       0.00134200      -0.03833090      -0.02853865
C        8.76377634       7.51196974       2.01664395      -0.02666130      -0.00100406      -0.00748401      -0.03328395
C        8.89068912       7.25929932       3.36570875      -0.00944389       0.00439356       0.00394194      -0.03259449
C        7.77630291       7.29958282       4.20136257      -0.02064025      -0.00201950       0.02329617      -0.00172876
C        7.85892133       7.03919388       5.63872729      -0.00539274      -0.00474177       0.02717779       0.07496349
C        9.00305467       6.76063224       6.38205022       0.00321295      -0.00563617       0.01944072      -0.05080547
C        8.88440760       6.55490628       7.74974567      -0.00363959      -0.01096835       0.00886915      -0.01973849
C        7.64483292       6.62698108       8.36180967      -0.01647839       0.00350668      -0.00929594      -0.04952805
C        6.52991517       6.91386456       7.57272154      -0.00420613       0.00281632      -0.02114882       0.07523706
C        5.16984889       7.06571348       8.02265017       0.00669835       0.00738875      -0.00493722       0.01995035
C        4.54455500       6.97904633       9.26777689      -0.00887619       0.01044675      -0.01851448      -0.07694958
C        3.21413484       7.27511534       8.97535677      -0.01029267       0.00496976      -0.01379873       0.01562521
C        7.34547199       8.02488503       0.03108372      -0.01607256       0.00175471      -0.02853766       0.48314135
C        2.08308372       7.36413157       9.92823641      -0.00375594      -0.00214577       0.01271260       0.48284485
C        3.55115645       8.12010680       3.93450500       0.00618270       0.00389929      -0.00628615      -0.05408962
C        3.29579270       9.46922875       3.68300608       0.00190873       0.00109595      -0.01175536       0.05847633
C        2.34229245       9.85737385       2.75912210      -0.00718824      -0.00219452      -0.00923682      -0.04157380
C        1.63978799       8.85706765       2.08809164      -0.02556084       0.00129938       0.00178171      -0.03285565
C        1.87315473       7.49919124       2.30316881       0.00146122       0.00628981      -0.00547315      -0.04186270
C        2.83732714       7.14821220       3.23126374       0.00799940       0.00604670      -0.01164606       0.05827233
C        0.62285286       9.25951788       1.06090855       0.00450940      -0.00266857       0.00650593       0.48557866
C        5.04511239       9.67257319       5.25980528       0.02508159      -0.00419528      -0.00619263       0.00591808
C        4.17363924      11.64047189       4.62478566       0.00838970       0.00307554       0.01713025      -0.01425382
C        5.13675460      11.88061088       5.54788879       0.02006599      -0.01658148       0.00661451      -0.01864663
C        6.68125070      10.47865866       6.90909986       0.00416611       0.00834553      -0.00505459      -0.05609927
C        4.28022829       5.76700067       4.49633023       0.02372087      -0.00490472      -0.01426621       0.00630651
C        2.81293525       4.62410460       3.23822374       0.00952809      -0.01169351       0.01733283      -0.01427615
C        3.56260245       3.73270290       3.93182271       0.02527388       0.01005376       0.01643517      -0.01880710
C        5.40121159       3.88192851       5.60538323       0.00450310      -0.00371527      -0.00529056      -0.05756427
F        7.09919007       6.86854233      -0.62329174       0.00048156      -0.01933113       0.00158538      -0.21537093
F        6.32944122       8.84451638      -0.27883001      -0.01250037       0.02282000       0.02149310      -0.20886564
F        8.43991978       8.54606450      -0.54945149       0.00936260       0.00117137       0.02328587      -0.20982606
F        2.04943450       8.54739819      10.58766407      -0.00317631       0.02173874      -0.02086852      -0.22303765
F        2.15888805       6.42798528      10.89947571       0.01755904      -0.03155142      -0.00651567      -0.22185880
F        0.88232476       7.22022083       9.35742199      -0.00068584       0.00318484       0.00761506      -0.20210796
F       -0.36352524       8.35945628       0.92014423       0.00649078       0.01575797      -0.00353324      -0.20721011
F        1.16566182       9.40608337      -0.16672529      -0.00968704      -0.00172014       0.00988048      -0.21139034
F        0.03167689      10.43210263       1.34182908       0.00145018      -0.01454277      -0.00814305      -0.20736437
H        5.42610752       8.08060993       1.89006901       0.02586374      -0.00296884       0.00042156       0.05032716
H        9.62291192       7.48538124       1.36446934      -0.00760222      -0.00595970      -0.00098741       0.05139350
H        9.86533130       7.02547752       3.76494709       0.01184012       0.00071540       0.01749582       0.04108621
H        9.97055751       6.70729640       5.91133658      -0.00024407       0.00389894      -0.01274060       0.04160494
H        9.76555589       6.34209390       8.33699608      -0.01878461      -0.00641941       0.00008778       0.04177578
H        7.53836644       6.47079184       9.42324081      -0.02910239       0.01068878      -0.02009704       0.04601372
H        4.96323872       6.74106642      10.22416708       0.01326226       0.00039933      -0.02912690       0.02175520
H        2.13328380      10.89353331       2.54387077      -0.00458180       0.00433681       0.01535394       0.06135171
H        1.30947233       6.76548384       1.74839451      -0.00009830      -0.00734725       0.01096913       0.06151521
H        3.54352181      12.32499052       4.09655645      -0.02087176      -0.02499762      -0.00517909       0.06675146
H        5.48624971      12.80462879       5.96141464      -0.00560571      -0.00859149      -0.00718706       0.05992993
H        7.48250356       9.86107894       6.50033887       0.00070373       0.01960260       0.01618984       0.07068224
H        6.27000490       9.97761786       7.78869972       0.01760045       0.02558269      -0.01484008       0.07430052
H        7.08353618      11.44640934       7.20259338       0.01599568      -0.01993141       0.01820728       0.07015130
H        2.01965551       4.45619414       2.53987794      -0.00324298       0.03745267       0.01065329       0.06689512
H        3.53524231       2.66187185       3.94062873      -0.00508769       0.02185896       0.00414494       0.06025079
H        5.42016769       2.80072093       5.48174781       0.02663508       0.00818016       0.02352842       0.07053574
H        6.39394540       4.28916511       5.40800877      -0.00604319      -0.01832110       0.00948738       0.07252323
H        5.12478088       4.12252827       6.63467197       0.01373581      -0.01982970      -0.02120219       0.07504295
