84
Properties=species:S:1:pos:R:3:forces:R:3:charge:R:1 energy=-3844.6461896199985 free_energy=-3844.6461896199985 dipole="0.9447716337244568 -0.10081770852520519 -0.537069618806856" pbc="F F F"
Ir       5.00689543       7.60348184       5.14365223      -0.00700949       0.00635904       0.00984498      -0.04429323
N        6.59119052       7.10962444       6.28005669       0.00985910      -0.00337935       0.00896676      -0.12573365
N        8.91099397       6.78177087       6.38226928       0.00776921      -0.00586979       0.01876442      -0.26931827
N        4.16061733       7.40574609       7.12018932      -0.00202985       0.00287998      -0.01614550      -0.05701540
N        2.99565941       7.53088745       7.69317129      -0.00640067       0.00814462      -0.02684775      -0.21124714
N        5.65250492      10.67050299       5.90905700      -0.00184125       0.00540605       0.00427908       0.02487537
N        4.11202461      10.28614137       4.45701892      -0.00413684      -0.00146967       0.00015036       0.03533046
N        3.24984629       5.87664516       3.59244209      -0.00186274       0.00495471       0.00744171       0.03572979
N        4.44401788       4.45893284       4.68366991      -0.00058429      -0.00664093       0.00337684       0.02617394
C        6.48733831       7.59726005       3.73167286       0.02517409      -0.00688150       0.00748515      -0.04011717
C        6.44562489       7.84307254       2.36260829      -0.00759246       0.01000005       0.00215158      -0.05624095
C        7.60151028       7.79124939       1.60586528       0.00820602      -0.00510918       0.00010825       0.16692453
C        8.84370245       7.49855831       2.14582081      -0.00790194       0.00042550      -0.02030762      -0.05739724
C        8.91576806       7.24806635       3.49944643       0.01528143      -0.00502314      -0.02780916      -0.03172915
C        7.76263887       7.29443882       4.27865560       0.01949780      -0.00484473       0.00425464      -0.01974576
C        7.80093774       7.03930982       5.71006593       0.01241982      -0.00908995       0.00968452       0.16237908
C        8.81902749       6.58020863       7.69557316       0.01005296      -0.00416674       0.01236299       0.10303465
C        7.59525757       6.63828715       8.36070111       0.01703097       0.00405378       0.00482334      -0.07256761
C        6.46174869       6.92149093       7.60251073       0.00931269      -0.00144005       0.00835327       0.08516883
C        5.10709251       7.07723966       8.05041646      -0.00320361      -0.00263905      -0.00578972       0.02070585
C        4.48445557       6.99002136       9.29577786      -0.01295395      -0.00311768      -0.00661018      -0.07710198
C        3.15421461       7.28365829       9.00440363      -0.01200853      -0.00069695      -0.02459571       0.01460919
C        2.03242240       7.36537072       9.96815863      -0.00758324       0.00060404      -0.01874318       0.48223190
C       10.10764738       6.29901206       8.43956449       0.00649233      -0.00259277       0.00781529       0.02312149
C       11.29484672       6.29709278       7.47557047      -0.00125747      -0.00350811       0.01500597      -0.11133363
C       10.00620212       4.92616245       9.11562924       0.00370179      -0.00367169      -0.00244034      -0.10599729
C       10.32097560       7.39267848       9.49394394       0.00446901       0.00245699      -0.00140657      -0.10601788
C        5.03401165       9.67314348       5.25325073      -0.00849847       0.00809723       0.00677547       0.00534889
C        5.13238230      11.88129503       5.53639317      -0.01014475       0.01038836      -0.00073624      -0.02107783
C        4.16251898      11.63802026       4.62120398      -0.00089448       0.00358207      -0.01891767      -0.01528018
C        3.28260969       9.46900770       3.67203130      -0.00950864      -0.00549335      -0.00149948       0.04895592
C        2.32366398       9.84597145       2.75076929      -0.01014609      -0.01569613       0.00104503      -0.05161849
C        1.60193790       8.86592833       2.06151936      -0.01525813       0.01181324      -0.01632170       0.00462073
C        1.85876646       7.51667505       2.29941544      -0.00496796       0.01698224      -0.00040838      -0.05591997
C        2.82928438       7.16366001       3.22285471      -0.00640626       0.00909596       0.00507333       0.04808625
C        3.54372131       8.12630166       3.92444981       0.00448051      -0.00352221      -0.00194611      -0.06189837
C        2.80398506       4.63945469       3.23735824      -0.00323427       0.00257938      -0.01865365      -0.01583119
C        3.55577495       3.74508220       3.92452749      -0.01403519      -0.00926120      -0.00278254      -0.02158383
C        4.27097183       5.77823492       4.49141537      -0.00377460      -0.00465324       0.01135141       0.00607699
C        6.68797112      10.48846111       6.88714149       0.01608888       0.00498576       0.00255035      -0.05042520
C        0.54093680       9.32086553       1.06911922      -0.01518188       0.00176949      -0.00183518       0.02652437
C       -0.17917984       8.15190792       0.39230932      -0.00639527      -0.00708430       0.00081959      -0.10951119
C       -0.50614169      10.14970094       1.82650360      -0.01257380       0.00733388       0.00085868      -0.10813483
C        1.20537304      10.16604312      -0.02677660       0.00241158      -0.00015158       0.00835333      -0.10791272
C        5.40235824       3.88412698       5.58486283       0.01971208      -0.00858756      -0.00085966      -0.05242765
F        7.51807541       8.03719942       0.27590817      -0.00454839      -0.00010582       0.00749534      -0.23481408
F        2.00297424       8.54710392      10.63313906       0.02290785      -0.02987212       0.03099682      -0.22507640
F        2.12446210       6.41677667      10.92837482       0.00357241       0.04738518       0.01348047      -0.22405429
F        0.81898322       7.22638456       9.42206753       0.01312158      -0.02169215      -0.04118977      -0.20411674
H        5.51493533       8.08013381       1.86844486      -0.00814204       0.00100153       0.00539336       0.05361268
H        9.71538638       7.47078355       1.51184130       0.00480813       0.00139133      -0.00415772       0.05095035
H        9.85763521       7.01291928       3.97206836      -0.02179865       0.00539371       0.01241800       0.05512109
H        7.50672473       6.48492203       9.42314433       0.02856953      -0.00670501      -0.00724611       0.03572862
H        4.91470473       6.74810259      10.24549623      -0.01500800       0.00580276       0.01548874       0.01687231
H       11.38609243       7.26222429       6.98440179      -0.01116287      -0.03225222      -0.01051460       0.04778583
H       12.21130362       6.09291761       8.02468646       0.00701232       0.00135216      -0.01718351       0.03756497
H       11.16374213       5.53439008       6.71269918      -0.00402978       0.03142316       0.00185548       0.04794649
H        9.17747857       4.89007550       9.81868234       0.01871276      -0.00511813      -0.00313483       0.03658277
H        9.85939551       4.15058823       8.36658194      -0.02011128      -0.00414138       0.01123107       0.03595478
H       10.92540721       4.70961709       9.65548702      -0.01018203       0.01004119       0.00767920       0.04333177
H       10.40495429       8.36465618       9.01175282      -0.01916129       0.00614180       0.01461209       0.03530026
H        9.49693199       7.42780450      10.20248040       0.02097328      -0.00078322       0.00010817       0.03636045
H       11.24025545       7.20384250      10.04394792      -0.01178633      -0.00944671       0.00293404       0.04358414
H        5.48085690      12.80789433       5.94228240       0.02368253       0.01587512       0.02203410       0.05230020
H        3.52499618      12.31597811       4.09486323      -0.02036167       0.02597592      -0.01172363       0.05773956
H        2.13195132      10.89078490       2.55962017       0.00920536      -0.01659997       0.01771535       0.03682717
H        1.31389669       6.75195375       1.77115094       0.01721974       0.01087727       0.01350663       0.04391448
H        2.00643365       4.48359339       2.54297298      -0.03254849      -0.02185380      -0.02519581       0.05877154
H        3.52336158       2.67589531       3.92625636       0.01383005      -0.04022426       0.02279963       0.05246770
H        7.48796501       9.87164688       6.47617093       0.00338612      -0.02059444      -0.00441029       0.06884376
H        7.09514875      11.45703221       7.16931538       0.01001028       0.01843497       0.01528116       0.06517836
H        6.28871809       9.99735435       7.77713892       0.00248355      -0.00403549      -0.00255168       0.06931819
H        0.51643252       7.54272488      -0.18043050      -0.00866239       0.00442123      -0.00748473       0.03618061
H       -0.93114137       8.53781988      -0.29308693       0.01080240       0.00074965      -0.00145087       0.03863244
H       -0.68468934       7.52804148       1.12546010      -0.01146613      -0.00019386      -0.00108869       0.03719219
H       -0.94096647       9.55340884       2.62574957      -0.00799718       0.00802818       0.00048663       0.03811254
H       -1.30395083      10.46389224       1.15723645       0.01259285      -0.00476153      -0.02548529       0.03877852
H       -0.06476696      11.03746579       2.26987106      -0.01268842       0.00944136      -0.00975176       0.03645786
H        0.46510387      10.48959619      -0.75590546       0.00906920      -0.00590456       0.01843704       0.03919082
H        1.96416418       9.57837681      -0.53953205      -0.01162601       0.00780048      -0.01116805       0.03664154
H        1.68576806      11.04804763       0.38676786      -0.01720665       0.01276945      -0.00895419       0.03605967
H        6.39282684       4.29515367       5.38786287       0.01708497       0.02301333       0.00408239       0.07044853
H        5.13241456       4.10468166       6.61987164       0.00029064       0.00239836      -0.00447279       0.07029405
H        5.42966266       2.80541053       5.44602859       0.00457792      -0.02275500       0.01208863       0.06559484
