84
Properties=species:S:1:pos:R:3:forces:R:3:charge:R:1 energy=-3844.579040173992 free_energy=-3844.579040173992 dipole="1.2294254753018738 0.017046044660445077 -1.0340388955293058" pbc="F F F"
Ir       5.03509608       7.59178516       5.15028452       0.01666246       0.00389443      -0.02972854      -0.04495877
N        6.65338026       7.10167127       6.24784905       0.01118815      -0.00289024      -0.00022734      -0.13534088
N        7.56383290       6.64004235       8.36393312       0.01713897      -0.00105224      -0.01302780      -0.26965597
N        4.22176984       7.35838749       7.12164312      -0.01722830       0.00993565      -0.01584197      -0.05702515
N        3.06171219       7.44775318       7.70974867      -0.02032785       0.01170782      -0.00916131      -0.20875686
N        5.66049020      10.68946678       5.91674103       0.00386629      -0.01235381      -0.00621505       0.02465808
N        4.12087833      10.27882211       4.47338144       0.01423261      -0.00212334      -0.00305166       0.03480142
N        3.26648149       5.86516631       3.59180006       0.01744972       0.00703842      -0.00128506       0.03483476
N        4.45227237       4.43785846       4.67925488       0.00944954       0.01058822      -0.00081475       0.02697503
C        6.49056527       7.60380139       3.71651366       0.00191129       0.00070156      -0.00982600      -0.03831040
C        6.39659433       7.85615303       2.35020388      -0.00173061      -0.00443959       0.02531019      -0.05614176
C        7.52095088       7.81352456       1.54966778      -0.00645917       0.00798455       0.00227030       0.16692071
C        8.78222346       7.52723145       2.04489491      -0.00099774      -0.00374550      -0.00782834      -0.05822387
C        8.90535790       7.27193441       3.39421929      -0.00224424      -0.00489104      -0.00062691      -0.03472007
C        7.78637551       7.30459346       4.22526575      -0.00624948      -0.00044823       0.00815187      -0.01492592
C        7.85787071       7.04142160       5.65716632       0.00343602       0.00497685      -0.00036502       0.08911087
C        8.97131209       6.76444771       6.44747415      -0.00056243      -0.00707381      -0.01043089      -0.07277681
C        8.77214300       6.56415241       7.81439615       0.00375162       0.00375992      -0.02369102       0.10401550
C        6.53818989       6.90916638       7.57267221       0.00115773      -0.00333268      -0.00530456       0.16077409
C        5.18742411       7.04296217       8.03627266      -0.01059174       0.00143989      -0.00857813       0.01983725
C        4.58475055       6.92819547       9.28762445       0.00401987       0.00309761       0.00774791      -0.06959468
C        3.24606681       7.19704776       9.01805428      -0.00012644       0.00049259      -0.01369542       0.01428319
C        2.13415205       7.19850445       9.99608488       0.00621257       0.00065258      -0.01708508       0.48211107
C        9.92337330       6.26024643       8.74932565      -0.00397060       0.00177197      -0.00672082       0.02350277
C       10.62080076       4.97539094       8.28662966      -0.00228269      -0.00727144      -0.00336456      -0.10545327
C       10.91682926       7.42824289       8.71343437      -0.00004439       0.00801561      -0.00093427      -0.10537507
C        9.39158000       6.07790648      10.17069963       0.00830846      -0.00413884       0.01590112      -0.11286594
C        5.04847391       9.67842443       5.27486726      -0.01541943      -0.00808077       0.01032350       0.00440397
C        5.13638154      11.89447160       5.52426105      -0.00294707      -0.00628751       0.01249296      -0.02234840
C        4.16758267      11.63394593       4.61333155      -0.00968117      -0.00697254       0.02274509      -0.01444011
C        3.29203512       9.45549802       3.69563701       0.01016058       0.00863746      -0.00878637       0.04815179
C        2.33371432       9.84353483       2.77292763       0.00471171      -0.00005167       0.00241858      -0.05621493
C        1.62109764       8.87194252       2.07306131      -0.01331397       0.00387490       0.03380266       0.00476958
C        1.88352830       7.51887250       2.30850415       0.00144591      -0.00935523      -0.00320799      -0.05181255
C        2.84446396       7.15562212       3.23373597       0.01598411      -0.00386364      -0.00628854       0.04884896
C        3.55731616       8.11532172       3.94566795      -0.02729394      -0.00140899       0.01352408      -0.06096077
C        4.28899937       5.75857662       4.49049943      -0.00895530       0.01048260       0.02132031       0.00704443
C        2.81643362       4.63084069       3.22778294      -0.00892199       0.00739190       0.02583965      -0.01412596
C        3.56177753       3.73008025       3.91356927      -0.00393616       0.00432166       0.01393798      -0.02233850
C        6.69059800      10.56192093       6.90854517      -0.00157759      -0.00384396      -0.01061832      -0.05281978
C        0.55220120       9.23578169       1.05265619      -0.00249451      -0.00339936       0.01158253       0.02667148
C       -0.78111195       8.61603925       1.49369944      -0.01411073      -0.00477837      -0.00358188      -0.10816790
C        0.96633602       8.68938890      -0.32075475      -0.00673398       0.00257263      -0.00145169      -0.10783333
C        0.34742369      10.74727246       0.91780021       0.00067704       0.00147580      -0.00423753      -0.10940782
C        5.39048811       3.82953720       5.57939449       0.00069329       0.00903139      -0.00827913      -0.05478939
F        7.38998171       8.06311431       0.22527040      -0.00449296       0.00238403      -0.00854232      -0.23459618
F        1.67764365       5.95229958      10.27461366      -0.01097167       0.01626396      -0.01104321      -0.22452708
F        2.51521936       7.70590899      11.19046647      -0.02509358      -0.00255799      -0.01530765      -0.22296962
F        1.06445518       7.90620622       9.61093653       0.00662841      -0.00903089       0.00929776      -0.20500109
H        5.44422610       8.08814571       1.89639859       0.00849945       0.00196548      -0.00447322       0.05423693
H        9.62860939       7.50793848       1.37700381       0.02080599      -0.00650896       0.02203860       0.04897226
H        9.87848150       7.04323608       3.80432898      -0.00805537       0.00288362      -0.01151569       0.03432598
H        9.95430226       6.71145428       6.01041245      -0.01027557      -0.00238052       0.02286896       0.03256378
H        5.04285575       6.69656626      10.22466017       0.01617539      -0.00834240       0.02919655       0.03160496
H        9.91886934       4.14439508       8.28165924      -0.00097924      -0.00672514       0.00682124       0.03609873
H       11.02662675       5.08884366       7.28424521       0.00706869      -0.01528651       0.00043886       0.03454921
H       11.43968712       4.73201312       8.95975024      -0.01416687       0.00722308       0.01149177       0.04360199
H       10.42861217       8.35021176       9.02168953      -0.00161531       0.00311494       0.00638719       0.03577434
H       11.31944321       7.56969209       7.71323050       0.00848378       0.01114401       0.00397442       0.03435574
H       11.74584583       7.23373624       9.39003842      -0.01509315      -0.00789940       0.00843144       0.04386734
H        8.67262403       5.26452614      10.20167448       0.01433298      -0.01688942       0.00276705       0.05050831
H       10.20577864       5.85825485      10.85586139       0.03615998      -0.00491863      -0.00154342       0.03728898
H        8.88374991       6.97939282      10.50049594       0.01645628       0.00984818       0.00729599       0.05124921
H        5.48924473      12.82365439       5.92104843       0.00085905       0.01628158       0.00380324       0.05325828
H        3.52130285      12.29899390       4.07957107       0.00950865       0.01308873      -0.00078304       0.05861136
H        2.15078061      10.89015659       2.59825734       0.00026745       0.00249016       0.00294604       0.04367527
H        1.34064237       6.76135806       1.76480541       0.00530729       0.00047075       0.00172781       0.03683599
H        2.01361705       4.48185749       2.53610612       0.00691428      -0.01189168      -0.00602996       0.05820819
H        3.52870477       2.66033465       3.92157065      -0.00217194      -0.01312257      -0.00279262       0.05411647
H        6.98533808       9.51907762       6.98660778      -0.00229703       0.00008724      -0.00147293       0.07616636
H        6.32483345      10.89774251       7.88150656       0.00314701      -0.00641996      -0.00687581       0.06721359
H        7.56064521      11.16023885       6.63203243      -0.00108250       0.00120222      -0.00458810       0.06125344
H       -1.04572054       8.97081829       2.48739399      -0.00481755       0.00318852      -0.00543574       0.03827832
H       -0.72690471       7.53195888       1.52601942      -0.00030175      -0.00526086      -0.00887171       0.03638525
H       -1.57412996       8.89499378       0.80372467      -0.00291003       0.00711292      -0.01338306       0.03889437
H        1.92231813       9.11531349      -0.61840885      -0.00636635      -0.00571382      -0.00547533       0.03655043
H        0.22201057       8.95381376      -1.06835881      -0.00400925      -0.00595342      -0.01054031       0.03933854
H        1.06709002       7.60778461      -0.30732934      -0.01050476       0.00579588       0.00225046       0.03605327
H       -0.43818092      10.94062660       0.19036394      -0.00295279      -0.00011519      -0.00288052       0.03861000
H        0.04247471      11.18838131       1.86399561      -0.00140643      -0.00939857      -0.00529955       0.03728618
H        1.25324538      11.23607925       0.56666866       0.00319746       0.00223181       0.00468811       0.03596678
H        6.04561858       3.14096015       5.04233980      -0.00517184       0.00154964      -0.00774520       0.06194099
H        5.99237761       4.60826658       6.04135360      -0.00081650       0.00102919      -0.00085542       0.07888934
H        4.86317591       3.27959056       6.36177986       0.00748390       0.00701678      -0.00408346       0.06823369
