86
Properties=species:S:1:pos:R:3:forces:R:3:charge:R:1 energy=-4125.713433392022 free_energy=-4125.713433392022 dipole="-0.48731638311923997 1.164576275558337 0.08907733268607872" pbc="F F F"
Ir       4.92384073       8.93343470      24.48079387      -0.00271873       0.02976018      -0.00457194      -0.04433004
O        4.17236091      12.26735980      24.70570625      -0.00184729      -0.01117487       0.00864832      -0.24313055
N        5.99102346      10.79827978      24.56978956       0.03166647       0.02504216       0.00391829      -0.15053311
N        6.88980116       8.28507575      24.33881942      -0.01411530      -0.01654218       0.00713104      -0.04195667
N        7.49464535       7.13337454      24.23517549      -0.00626704      -0.01371618       0.00040278      -0.21363790
N        5.15599248       9.23852115      21.29100638      -0.02398966       0.02088616       0.00881993       0.00129486
N        3.97465642       7.58847531      22.08480245      -0.00440867       0.02177878      -0.00102327       0.01184017
N        4.16376618       7.15236195      26.65233515      -0.00382078       0.02043797       0.00384818       0.01323892
N        5.29070496       8.71856006      27.66469030      -0.01722469       0.01897364      -0.00559767       0.00198404
C        3.14223421       9.97208043      24.70581934       0.03643447       0.00059974      -0.00170593      -0.06963043
C        1.89135021       9.35153620      24.83461283       0.02590104      -0.02353231      -0.01448383      -0.06202230
C        0.72667553      10.05677479      25.04894783       0.00947462       0.01630554      -0.00505613       0.15740104
C        0.71106472      11.43348682      25.14959288       0.00020116       0.01094047       0.00276707      -0.05820002
C        1.92034560      12.08030604      25.02111006      -0.00580334       0.00769991       0.00566797      -0.05281296
C        3.10409211      11.37160235      24.80646738       0.00795539      -0.01976038       0.00193857       0.12224441
C        5.47994537      12.02569983      24.62729913      -0.00804459      -0.00183233       0.00346611       0.22148610
C        6.29146649      13.17143793      24.60559320      -0.00999624      -0.01278269       0.00523036      -0.07496175
C        7.66071401      13.02044189      24.53060637      -0.00199682      -0.00672176       0.00223537      -0.01841444
C        8.19776424      11.74573136      24.46962812      -0.02145365      -0.01184646       0.00435768      -0.06164022
C        7.33691283      10.65313430      24.48467770       0.02285258      -0.02428026       0.00174991       0.07989479
C        7.79630907       9.29678234      24.39005217       0.00464233      -0.03482194      -0.00008489       0.02383646
C        9.07333773       8.73603573      24.31312200       0.01286264      -0.00766915      -0.00440447      -0.07825211
C        8.81761702       7.37085180      24.22094638      -0.00935581      -0.00034277      -0.00365547       0.01472068
C        9.81938834       6.28638365      24.09157420      -0.03168425      -0.00668193       0.00289519       0.48237305
C        4.68237833       8.70637111      22.43454691       0.01514762      -0.00281918       0.00066432       0.01803140
C        4.77044132       8.47723127      20.20938535      -0.00937685       0.00742610       0.01359098       0.03554359
C        5.01232334       8.61026106      18.85068294       0.00011060       0.00580080       0.00232388      -0.04487179
C        4.45463371       7.66618733      18.01023622      -0.00579814       0.00590358       0.00017122      -0.03445701
C        3.70178345       6.60650379      18.51111671      -0.00249572       0.01660532      -0.00424160      -0.03453797
C        3.47385387       6.45595987      19.86525433       0.00300706      -0.01090073       0.00002309      -0.04127277
C        4.00279466       7.41217816      20.72147434       0.01063520       0.00007370       0.00032016       0.04159981
C        3.95648918       7.22252084      24.36041608       0.00507930      -0.02144607      -0.00285845      -0.05062450
C        3.46829521       6.79623632      23.13138891      -0.01233284       0.01046388      -0.01108557       0.05448321
C        2.54586138       5.76732753      23.06865670      -0.00866648      -0.00584897      -0.01060491      -0.05378471
C        2.13494873       5.12522633      24.23890083       0.01728738      -0.01103929      -0.00211080       0.00476915
C        2.68307125       5.50149021      25.46282361      -0.01478539      -0.00534034       0.01012793      -0.05779823
C        3.58920466       6.55017146      25.51774390      -0.01344467       0.00703182       0.01486542       0.05373059
C        4.82087254       8.33723788      26.46236644       0.01468661      -0.00241911       0.00048424       0.01912658
C        4.22615244       6.77937408      27.97432473       0.00379834      -0.00438930       0.00421742       0.04154426
C        3.75730725       5.68468495      28.68849034       0.00325649      -0.00476067       0.00086374      -0.04121987
C        4.00063285       5.64919234      30.04785929      -0.00567400       0.01313615       0.00240416      -0.03444838
C        4.70608892       6.66352733      30.69138554       0.00212001       0.00911084      -0.00079791      -0.03442995
C        5.20537799       7.74493460      29.99121177       0.00098907       0.00095615      -0.00489738      -0.04496288
C        4.95427465       7.79344471      28.62839362      -0.00163921       0.00828236      -0.00557177       0.03509295
C        5.97183570      10.41792554      21.21151722      -0.00087823       0.00017963       0.00435600      -0.04697693
C        1.03068167       4.08076162      24.14000529       0.01117746       0.00134894       0.00109786       0.02677472
C        0.77468418       3.35445014      25.46398246       0.00025266       0.00431236       0.00070730      -0.10883578
C        1.39966179       3.02267417      23.09110467      -0.00167351      -0.00067135      -0.00171292      -0.10718500
C       -0.26184415       4.80515440      23.73239743       0.00240209      -0.00999948      -0.00058785      -0.10829140
C        6.03842531       9.92042683      27.90488379       0.00462174       0.00017252      -0.00402016      -0.04841761
F       -0.43799199       9.37158738      25.16907504       0.00670794      -0.00527918      -0.00458814      -0.23852118
F       10.93039257       6.52887361      24.82434473      -0.04002794       0.00929493      -0.00843228      -0.22331157
F        9.37097850       5.08497110      24.47399485       0.01095585      -0.00340615       0.00191264      -0.20379506
F       10.26687076       6.13220812      22.82086101      -0.02275160       0.00958472       0.01303202      -0.22416725
H        1.80500647       8.27842317      24.76628461      -0.00488461       0.00971138      -0.00323400       0.06181497
H       -0.20936619      11.96572535      25.32300687       0.00001687       0.02930198      -0.00539318       0.05437198
H        1.97794083      13.15598586      25.08951541       0.00534349       0.00186931      -0.00681454       0.05146956
H        5.82188548      14.14019171      24.64954591      -0.00758371      -0.02996442       0.00420523       0.05354298
H        8.30455131      13.88621178      24.51789504      -0.00699535       0.01320740      -0.00247290       0.04499901
H        9.26166175      11.58545201      24.40495035      -0.03959588       0.01156333       0.00397307       0.04710336
H       10.02587729       9.22205490      24.32921683       0.03191006       0.00559184      -0.00199955       0.01890219
H        5.61896824       9.41201114      18.45900672      -0.02260233       0.00738570       0.00073313       0.03730983
H        4.60835568       7.74785437      16.94510693       0.01718003      -0.01122636       0.00899882       0.04131549
H        3.28755666       5.88517064      17.82289198       0.02493486      -0.00111308       0.01449030       0.04263921
H        2.91678356       5.61244078      20.23400509      -0.01800157      -0.00394966      -0.01084781       0.04608898
H        2.10172853       5.48983761      22.12881545       0.00581948      -0.01052219      -0.00891297       0.04092099
H        2.36331243       5.01467421      26.36513737      -0.00204798      -0.00708506       0.00880808       0.04737610
H        3.23279812       4.87707649      28.20859522      -0.01699562      -0.00982343       0.00846307       0.04801879
H        3.63490014       4.81452741      30.62691931       0.02107002       0.00893533      -0.01336851       0.04304121
H        4.86907497       6.59966130      31.75646526       0.01820259      -0.00600806      -0.01424349       0.04136315
H        5.77313625       8.51537736      30.48934056      -0.01174015       0.00302549      -0.00156094       0.03764400
H        7.02682156      10.16718828      21.34923724       0.00612262       0.00491711      -0.02165762       0.06247893
H        5.84030083      10.89100817      20.23971333       0.00182232       0.00255450       0.00529081       0.06351616
H        5.67509131      11.11776532      21.99070552      -0.00230647       0.00206337      -0.00582130       0.06932176
H        0.01305582       2.59175324      25.31376671       0.00888524      -0.00027091       0.00536880       0.03838777
H        0.40778885       4.03873062      26.22540689       0.01355004       0.00302110       0.00076389       0.03685506
H        1.67762944       2.86366970      25.82112089      -0.00827241       0.00444975      -0.00425929       0.03636158
H        1.45522435       3.44545625      22.09229568      -0.00218188      -0.00264897       0.00337562       0.03433700
H        0.64948983       2.23488300      23.07732936       0.00782682      -0.00250480      -0.00337510       0.03843946
H        2.36451562       2.57996183      23.32942067      -0.01324224      -0.00644179      -0.00228197       0.03758915
H       -1.08707320       4.09968697      23.66439548       0.00816301      -0.01406288      -0.00228460       0.03953541
H       -0.15137915       5.29752603      22.76967051       0.00037789      -0.00673996       0.00947886       0.03651933
H       -0.51540712       5.56216107      24.47196474       0.00212591      -0.00319186      -0.01848314       0.04045782
H        5.83106922      10.28900517      28.90864389       0.00406460       0.00659577      -0.00524038       0.06363538
H        7.11100615       9.73706894      27.80306344       0.00995824      -0.00363474       0.02399640       0.06248291
H        5.74267930      10.67516779      27.17833975       0.00712144       0.00291147       0.00215939       0.07258205
