24
Properties=species:S:1:pos:R:3:forces:R:3:charge:R:1 energy=-1100.4534841462748 free_energy=-1100.4534841462748 dipole="0.5596055500285633 0.021356479016363835 -0.5069594438614199" pbc="F F F"
O        0.52935590       0.87703378       2.41005649      -0.01934376      -0.00161473      -0.00238654      -0.33271315
C        0.25238802       0.46481680       1.25841320       0.01181995       0.00369975      -0.01097374       0.18027192
C        1.32259512       0.43531134       0.23426824       0.00930027      -0.00093547      -0.00449532       0.01485772
C        1.42746845      -0.61084505      -0.68275275       0.00445701      -0.00477432       0.00193423      -0.03290211
C        2.49881174      -0.64923030      -1.55557371       0.00747787       0.00071014       0.00289146      -0.02394342
C        3.47419106       0.33634672      -1.51726513      -0.00958322       0.00894892       0.00054733      -0.03210628
C        3.36949580       1.37290321      -0.60341260      -0.00400164       0.00003498       0.00237273      -0.02370503
C        2.30889595       1.42356000       0.27845713      -0.00168013       0.01521116       0.01944972      -0.02362983
C       -1.06185371       0.02120131       0.88827003       0.00428057      -0.00541308       0.00109085       0.00236004
C       -1.97967919      -0.26803873       1.93293556       0.00795539      -0.00546850       0.01773168      -0.02944160
C       -3.23647242      -0.72908171       1.64884403       0.01183937       0.01044719      -0.02287685      -0.03169273
C       -3.63343146      -0.86835417       0.31800187      -0.01429564      -0.02562831      -0.00718562       0.06742646
Br      -5.37177296      -1.52301217      -0.08994904      -0.01562428       0.00635177       0.00729925      -0.12530647
C       -2.77726613      -0.51737303      -0.72683759      -0.00335628      -0.01633301      -0.00392085      -0.03172537
C       -1.51434300      -0.06184775      -0.44708066       0.00515550      -0.03105365      -0.00110218      -0.04169248
H        0.70214267      -1.41063246      -0.68917698      -0.00019559       0.00272414      -0.00261758       0.04694430
H        2.57820472      -1.46605975      -2.25835593      -0.00387978       0.00306503       0.01855345       0.04351032
H        4.32157299       0.28587888      -2.18491440      -0.03333992       0.00764851      -0.02082558       0.04482253
H        4.11920379       2.15007287      -0.56829906       0.00231016      -0.01714863      -0.00064804       0.04730328
H        2.21990801       2.22473605       0.99403232       0.02864292       0.01383408       0.02911431       0.05630210
H       -1.64645857      -0.15777388       2.95189808       0.01568938       0.01734684       0.02413068       0.06214143
H       -3.91325035      -0.99175980       2.44871932       0.00748214       0.01455564      -0.02929733       0.05976286
H       -3.11485082      -0.59692539      -1.74889616      -0.01100186       0.02043153       0.00022885       0.05342920
H       -0.87485561       0.25907325      -1.25424299      -0.00010841      -0.01663997      -0.01901493       0.04972632
