22
Properties=species:S:1:pos:R:3:forces:R:3:charge:R:1 energy=-1029.1963888635105 free_energy=-1029.1963888635105 dipole="0.002133077501596315 0.008186865844043167 -0.015063569251468635" pbc="F F F"
Br      -5.40384744       0.34320282       0.16356373      -0.03764465       0.00229603      -0.02146148      -0.11973709
C       -3.52431044       0.23272199       0.06884699      -0.04715888      -0.00291671       0.00484918       0.06878510
C       -2.74328206       1.38705593       0.26902842      -0.01087391      -0.00719451       0.00209174      -0.03398488
C       -1.38864538       1.30421393       0.24741363       0.00149211       0.01413618      -0.00162683      -0.03635575
C       -0.69695790       0.05589426       0.01121591       0.03045440       0.00333252       0.00026456       0.00689375
C        0.69560078      -0.03713122      -0.00894140       0.03087089       0.00248763       0.00029307       0.00669134
C        1.56051255       1.05493778       0.38945448       0.01207404      -0.01055068       0.00459705      -0.03625669
C        2.91517314       0.95082068       0.36179637      -0.00027124       0.00176803      -0.00935696      -0.03384827
C        3.52585397      -0.24278418      -0.07086321      -0.01075474      -0.00059904       0.00913107       0.06856810
Br       5.40603721      -0.39744574      -0.08962678      -0.00223178       0.02660563      -0.00329553      -0.11989281
C        2.73102655      -1.33360716      -0.47321033       0.00161093      -0.00675081       0.00536801      -0.03407843
C        1.37736888      -1.24015415      -0.43747052       0.00656146       0.00089374      -0.01057299      -0.03668497
C       -1.54993590      -1.09248718      -0.20830351       0.00741434      -0.00736011      -0.00026308      -0.03675188
C       -2.90398546      -1.00659837      -0.17781502      -0.00356636       0.00258100       0.02125348      -0.03400627
H       -3.23813966       2.33196086       0.43408713       0.01076924       0.01367601       0.01356554       0.04918513
H       -0.81951413       2.20784089       0.37899259       0.03123320       0.02170824       0.00817713       0.04349330
H        1.12597141       1.97084469       0.75543515      -0.00354390      -0.02379539      -0.02954140       0.04333334
H        3.54058657       1.77571241       0.67038074      -0.02897957      -0.00573232       0.01368595       0.04900531
H        3.21290170      -2.23882771      -0.81051718      -0.00397245      -0.00654589       0.00015330       0.04905450
H        0.79767889      -2.08288624      -0.77352933       0.01812584      -0.00611945      -0.00140243       0.04376562
H       -1.10609250      -2.05961994      -0.36697052       0.01120554      -0.02025468      -0.01673496       0.04374450
H       -3.51400078      -1.88366434      -0.33296734      -0.01281452       0.00833459       0.01082557       0.04907707
