24
Properties=species:S:1:pos:R:3:forces:R:3:charge:R:1 energy=-1197.908428027932 free_energy=-1197.908428027932 dipole="0.01749669491161502 0.13476436045928503 0.06425120862691301" pbc="F F F"
O       -0.03704037      -2.26363496      -1.27047981       0.00216365      -0.00378479      -0.01566527      -0.34090153
C       -0.03041164      -1.15401413      -0.67795945      -0.02088683      -0.00292877      -0.00854947       0.17870217
C       -1.27206763      -0.48805296      -0.33155658       0.00398934       0.00717709       0.01378005       0.00548457
C       -2.44286141      -0.85729252      -1.03032414       0.01258079       0.00423315       0.01754677      -0.02558824
C       -3.65296377      -0.29722252      -0.70831608      -0.00510043      -0.00961825       0.02100004      -0.03106084
C       -3.72928875       0.62632508       0.33092396       0.03635657       0.01256840       0.01315009       0.07405186
Br      -5.39984562       1.42059520       0.77096808      -0.01178454      -0.00075783       0.00648263      -0.11737741
C       -2.59725049       0.96773417       1.06836421       0.02425146      -0.00230925       0.01891556      -0.03097040
C       -1.38188171       0.41271611       0.74370892       0.01085417       0.00051548      -0.00542553      -0.03764910
C        1.24753771      -0.52459558      -0.37738422      -0.01649116       0.01091606       0.00715975       0.00946886
C        1.41854283       0.86913267      -0.27119048      -0.00636811      -0.01006029      -0.00005266      -0.03717159
C        2.65580051       1.39707066       0.01401368      -0.01051571       0.01032134       0.00066293      -0.03099244
C        3.75280843       0.54923259       0.15509139      -0.03434559      -0.02310402      -0.01114693       0.07439990
Br       5.46265410       1.28573444       0.52836041       0.02411211       0.02753971       0.00879573      -0.11607119
C        3.61840644      -0.82666625      -0.01893353      -0.00051618      -0.02208383      -0.01819692      -0.03100946
C        2.38679468      -1.35591423      -0.30609709      -0.02643732       0.00411843      -0.01898322      -0.02558181
H       -2.36712679      -1.57853308      -1.82834569       0.02894694      -0.01091623       0.00368221       0.06651994
H       -4.54248818      -0.57799783      -1.24911707      -0.03039407       0.01163788      -0.03136755       0.06230397
H       -2.67643495       1.64943418       1.90186826      -0.01777493       0.00352653      -0.02239569       0.05781478
H       -0.51895557       0.63744324       1.35305925      -0.02349501       0.00740438      -0.02249097       0.05233635
H        0.58622365       1.53436915      -0.44382866       0.01688799      -0.00785591       0.01835353       0.05330460
H        2.78404483       2.46485882       0.10745166      -0.00336412      -0.00454316      -0.00031450       0.05860643
H        4.47706259      -1.47358763       0.06561917       0.03945680       0.00454456       0.02525581       0.06268607
H        2.25874112      -2.41713463      -0.44758384       0.00787419      -0.00654068      -0.00019638       0.06869453
