24
Properties=species:S:1:pos:R:3:forces:R:3:charge:R:1 energy=-1233.0742148148006 free_energy=-1233.0742148148006 dipole="0.02581900547928147 -0.19908831477507427 -0.08893960695943717" pbc="F F F"
O        0.30984676       2.38857227       0.82119435       0.01055432      -0.02317898      -0.02469741      -0.32296503
C        0.12962189       1.19535959       0.46156427       0.00591767      -0.01030852      -0.00561268       0.17716909
C       -1.19270300       0.64430450       0.24328888       0.02651309      -0.00018563       0.00779421       0.00426212
C       -1.48057696      -0.72838890       0.29737155       0.02331863       0.00173214      -0.01964440      -0.04012813
C       -2.77821845      -1.17559158       0.19459276       0.02673260      -0.00090194       0.01350689      -0.04360616
C       -3.80236443      -0.25184283       0.02816471       0.00745868      -0.00251188       0.00082100       0.16527961
F       -5.06892517      -0.69603710      -0.08841397      -0.02255350      -0.00367712      -0.00931990      -0.21633859
C       -3.54957097       1.11282165      -0.01317417       0.00841627       0.02337058       0.01160236      -0.04406454
C       -2.25667307       1.56284774       0.08837612       0.03490333      -0.00928623      -0.01044305      -0.02614539
C        1.31519325       0.39274945       0.15760722      -0.01455035       0.00999513       0.00927007       0.01541888
C        2.53372970       0.79614498       0.75000552      -0.00372676       0.00362363      -0.01550324      -0.02618151
C        3.67419125       0.05860288       0.55156263      -0.00248314       0.02330186       0.00021569      -0.04336099
C        3.63315046      -1.05305911      -0.28248314      -0.00776644       0.01977444      -0.02031310       0.16588233
F        4.75835501      -1.76200600      -0.49504502      -0.00575116      -0.01374482       0.00922061      -0.21296855
C        2.46956905      -1.41540602      -0.94942615      -0.02436048       0.02042351      -0.01900210      -0.04386940
C        1.32416584      -0.67472666      -0.75967692      -0.00940272       0.02509088      -0.00543489      -0.03873909
H       -0.69213096      -1.44418889       0.47235019       0.00684397       0.00427316       0.01132668       0.05825432
H       -3.00731551      -2.22762005       0.24841856      -0.02331683      -0.01298845       0.00546371       0.06382993
H       -4.36910314       1.80644536      -0.11518916      -0.01642853       0.00649686      -0.01654558       0.07100148
H       -2.02511910       2.61654096       0.06273487      -0.01334945      -0.01987399       0.02200865       0.06731997
H        2.53822366       1.66345392       1.39066767      -0.01501056      -0.01401732       0.00144650       0.07177993
H        4.60171138       0.33465606       1.02691952       0.01244441      -0.00603532       0.03328730       0.07183852
H        2.48592015      -2.24384796      -1.63963445      -0.00662437      -0.01588741       0.00130749       0.06612308
H        0.44902236      -0.89978425      -1.34861001       0.00222134      -0.00548455       0.01924518       0.06020814
