18
Properties=species:S:1:pos:R:3:forces:R:3:charge:R:1 energy=-794.628685367432 free_energy=-794.628685367432 dipole="-0.2807835390435932 0.4467818770695697 0.12724813896242104" pbc="F F F"
C        3.35889506       0.38555719       0.32118474      -0.02410484      -0.00234197      -0.01542379       0.03899054
O        1.98509493       0.59842761       0.06475907      -0.02425598      -0.00373653       0.03990917      -0.27486692
C        1.23083676      -0.52611275      -0.12399355      -0.00272538       0.00564118       0.01166497       0.31251358
O        1.73286827      -1.65409030      -0.24490135       0.00293906       0.00751045      -0.00457102      -0.40727111
C       -0.17411997      -0.30384977       0.00941686       0.01366870      -0.01712456       0.03585327       0.00530531
C       -1.10797248      -1.35792369      -0.30350709       0.02759134       0.01748899      -0.02149293      -0.02911214
C       -2.40733700      -1.03874672      -0.53735033       0.01520643      -0.01737785       0.02300175      -0.01846985
C       -2.88710118       0.27403771      -0.30373386      -0.00082835      -0.00176233      -0.01747318      -0.03423483
C       -1.99724749       1.28156869       0.12813767       0.00312022      -0.01440744      -0.01974095      -0.01876346
C       -0.68998591       0.99592640       0.37331239       0.00866993       0.00074614      -0.01794458      -0.03188529
H        3.51419123       0.16362318       1.38235529       0.01109094       0.00144697      -0.03674608       0.05441840
H        3.73610800      -0.45031867      -0.27334854      -0.00049713       0.02551236      -0.01220528       0.06820321
H        3.86481172       1.31329364       0.05750131       0.00568897      -0.02817898       0.01475187       0.06509967
H       -0.72397336      -2.35470629      -0.44695462      -0.03527055       0.00954299       0.01066161       0.06445621
H       -3.09990431      -1.80485482      -0.85434087       0.00004013       0.00958326      -0.00654152       0.04937017
H       -3.94660676       0.47099835      -0.32996130      -0.00850154      -0.00552782       0.00181652       0.04843854
H       -2.38362512       2.27037830       0.33148517       0.04018950      -0.00494481      -0.00651881       0.04723511
H       -0.00493239       1.73679193       0.74993901      -0.03202144       0.01792995       0.02099898       0.06057285
